Circuit: * C:\Libraries\bachelor\ltspice\correctionamps.asc

Early termination of direct N-R iteration.
Direct Newton iteration failed to find .op point.  (Use ".option noopiter" to skip.)
Starting Gmin stepping
Gmin = 10
vernier = 0.5
vernier = 0.25
vernier = 0.125
Gmin = 5.49741
vernier = 0.0625
vernier = 0.03125
vernier = 0.015625
vernier = 0.0078125
Gmin = 5.51716
vernier = 0.00390625
vernier = 0.00195313
vernier = 0.000976563
vernier = 0.000488281
Gmin = 5.50104
Gmin = 0
Gmin stepping failed

Starting source stepping with srcstepmethod=0
Source Step = 3.0303%
Source Step = 33.3333%
Source Step = 63.6364%
Source Step = 93.9394%
Source stepping succeeded in finding the operating point.

Changing Tseed to 2e-010

Date: Sun Mar 06 17:37:53 2016
Total elapsed time: 0.964 seconds.

tnom = 27
temp = 27
method = modified trap
totiter = 4473
traniter = 2848
tranpoints = 1222
accept = 1174
rejected = 47
matrix size = 125
fillins = 1348
solver = Normal
Thread vector: 12.5/7.8[3] 3.3/2.2[3] 3.7/3.1[3] 1.2/1.4[1]  2592/500
Matrix Compiler1: 241.52 KB object code size  31.1/13.5/[8.6]
Matrix Compiler2: 33.15 KB object code size  6.6/4.3/[2.2]


