Circuit: * C:\Libraries\bachelor\ltspice\correctionamps.asc

Early termination of direct N-R iteration.
Direct Newton iteration failed to find .op point.  (Use ".option noopiter" to skip.)
Starting Gmin stepping
Gmin = 10
vernier = 0.5
vernier = 0.25
vernier = 0.125
Gmin = 5.5165
vernier = 0.0625
vernier = 0.03125
vernier = 0.015625
vernier = 0.0078125
Gmin = 5.49501
vernier = 0.00390625
vernier = 0.00195313
vernier = 0.000976563
vernier = 0.000488281
Gmin = 5.50104
Gmin = 0
Gmin stepping failed

Starting source stepping with srcstepmethod=0
Source Step = 3.0303%
Source Step = 33.3333%
Source Step = 63.6364%
Source Step = 93.9394%
Source stepping succeeded in finding the operating point.


Date: Thu Mar 03 16:34:13 2016
Total elapsed time: 5.383 seconds.

tnom = 27
temp = 27
method = modified trap
totiter = 2243
traniter = 560
tranpoints = 281
accept = 280
rejected = 1
matrix size = 215
fillins = 5088
solver = Normal
Thread vector: 32.8/13.3[4] 5.3/4.1[4] 7.9/5.3[4] 4.0/3.3[3]  2592/500
Matrix Compiler1: 1.53 MB object code size  303.2/104.1/[76.5]
Matrix Compiler2: 105.72 KB object code size  21.5/10.0/[9.5]


