Circuit: * C:\Libraries\bachelor\ltspice\correctionamps.asc

WARNING: Node N011 is floating.

WARNING: Less than two connections to node NC_01.  This node is used by L2.
Early termination of direct N-R iteration.
Direct Newton iteration failed to find .op point.  (Use ".option noopiter" to skip.)
Starting Gmin stepping
Gmin = 10
vernier = 0.5
vernier = 0.25
vernier = 0.125
Gmin = 5.5165
vernier = 0.0625
vernier = 0.03125
vernier = 0.015625
vernier = 0.0078125
Gmin = 5.49501
vernier = 0.00390625
vernier = 0.00195313
vernier = 0.000976563
vernier = 0.000488281
Gmin = 5.50104
Gmin = 0
Gmin stepping failed

Starting source stepping with srcstepmethod=0
Source Step = 3.0303%
Source Step = 33.3333%
Source Step = 63.6364%
Source Step = 93.9394%
Source stepping succeeded in finding the operating point.


Date: Tue Mar 08 15:09:42 2016
Total elapsed time: 7.139 seconds.

tnom = 27
temp = 27
method = modified trap
totiter = 3932
traniter = 2230
tranpoints = 1115
accept = 1107
rejected = 8
matrix size = 241
fillins = 6752
solver = Normal
Thread vector: 39.0/18.5[4] 6.5/5.1[4] 10.5/8.0[4] 4.4/4.6[1]  2592/500
Matrix Compiler1: 1.92 MB object code size  362.5/125.7/[81.8]
Matrix Compiler2: 138.75 KB object code size  26.4/12.3/[7.2]


