Circuit: * D:\GitHub\LASDAC\ltspice\lasdac.asc

WARNING: Node N018 is floating.

WARNING: Less than two connections to node NC_01.  This node is used by L2.
Per .tran options, skipping operating point for transient analysis.
Ignoring empty pin current: Ix(u11:fb)
Ignoring empty pin current: Ix(u12:fb)
Changing Tseed to 9.76562e-010
Changing Tseed to 9.76562e-012
Changing Tseed to 9.76562e-009
Changing Tseed to 9.76562e-013
Changing Tseed to 9.76563e-008
Changing Tseed to 9.76563e-014
Changing Tseed to 9.76563e-007
Changing Tseed to 9.76562e-015
Changing Tseed to 9.76562e-006
Changing Tseed to 9.76562e-016
Changing Tseed to 9.76563e-005
Changing Tseed to 9.76562e-017
Heightened Def Con from 0 Changing Tseed to 1e-009
Changing Tseed to 1e-011
Changing Tseed to 1e-008
Changing Tseed to 1e-012
Changing Tseed to 1e-007
Changing Tseed to 1e-013
Changing Tseed to 1e-006
Changing Tseed to 1e-014
Changing Tseed to 1e-005
Changing Tseed to 1e-015
Changing Tseed to 0.0001
Changing Tseed to 1e-016
+Changing Tseed to 1e-009
Changing Tseed to 1e-011
Changing Tseed to 1e-008
Changing Tseed to 1e-012
Changing Tseed to 1e-007
Changing Tseed to 1e-013
Changing Tseed to 1e-006
Changing Tseed to 1e-014
Changing Tseed to 1e-005
Changing Tseed to 1e-015
Changing Tseed to 0.0001
Changing Tseed to 1e-016
+Changing Tseed to 1e-009
Changing Tseed to 1e-011
Changing Tseed to 1e-008
Changing Tseed to 1e-012
Changing Tseed to 1e-007
Changing Tseed to 1e-013
Changing Tseed to 1e-006
Changing Tseed to 1e-014
Changing Tseed to 1e-005
Changing Tseed to 1e-015
Changing Tseed to 0.0001
Changing Tseed to 1e-016
+Changing Tseed to 1e-009
Changing Tseed to 1e-011
Changing Tseed to 1e-008
Changing Tseed to 1e-012
Changing Tseed to 1e-007
Changing Tseed to 1e-013
Changing Tseed to 1e-006
Changing Tseed to 1e-014
Changing Tseed to 1e-005
Changing Tseed to 1e-015
Changing Tseed to 0.0001
Changing Tseed to 1e-016
+Changing Tseed to 1e-009
Changing Tseed to 1e-011
Changing Tseed to 1e-008
Changing Tseed to 1e-012
Changing Tseed to 1e-007
Changing Tseed to 1e-013
Changing Tseed to 1e-006
Changing Tseed to 1e-014
Changing Tseed to 1e-005
Changing Tseed to 1e-015
Changing Tseed to 0.0001
Changing Tseed to 1e-016
+Changing Tseed to 1e-009
Changing Tseed to 1e-011
Changing Tseed to 1e-008
Changing Tseed to 1e-012
Changing Tseed to 1e-007
Changing Tseed to 1e-013
Changing Tseed to 1e-006
Changing Tseed to 1e-014
Changing Tseed to 1e-005
Changing Tseed to 1e-015
Changing Tseed to 0.0001
Changing Tseed to 1e-016
+Changing Tseed to 1e-009
Changing Tseed to 1e-011
Changing Tseed to 1e-008
Changing Tseed to 1e-012
Changing Tseed to 1e-007
Changing Tseed to 1e-013
Changing Tseed to 1e-006
Changing Tseed to 1e-014
Changing Tseed to 1e-005
Changing Tseed to 1e-015
Changing Tseed to 0.0001
Changing Tseed to 1e-016
+Changing Tseed to 1e-009
Changing Tseed to 1e-011
Changing Tseed to 1e-008
Changing Tseed to 1e-012
Changing Tseed to 1e-007
Changing Tseed to 1e-013
Changing Tseed to 1e-006
Changing Tseed to 1e-014
Changing Tseed to 1e-005
Changing Tseed to 1e-015
Changing Tseed to 0.0001
Changing Tseed to 1e-016
+Changing Tseed to 1e-009
Changing Tseed to 1e-011
Changing Tseed to 1e-008
Changing Tseed to 1e-012
Changing Tseed to 1e-007
Changing Tseed to 1e-013
Changing Tseed to 1e-006
Changing Tseed to 1e-014
Changing Tseed to 1e-005
Changing Tseed to 1e-015
Changing Tseed to 0.0001
Changing Tseed to 1e-016
+Changing Tseed to 1e-009
Changing Tseed to 1e-011
Changing Tseed to 1e-008
Changing Tseed to 1e-012
Changing Tseed to 1e-007
Changing Tseed to 1e-013
Changing Tseed to 1e-006
Changing Tseed to 1e-014
Changing Tseed to 1e-005
Changing Tseed to 1e-015
Changing Tseed to 0.0001
Changing Tseed to 1e-016
+Changing Tseed to 1e-009
Changing Tseed to 1e-011
Changing Tseed to 1e-008
Changing Tseed to 1e-012
Changing Tseed to 1e-007
Changing Tseed to 1e-013
Changing Tseed to 1e-006
Changing Tseed to 1e-014
Changing Tseed to 1e-005
Changing Tseed to 1e-015
Changing Tseed to 0.0001
Changing Tseed to 1e-016
+Changing Tseed to 1e-009
Changing Tseed to 1e-011
Changing Tseed to 1e-008
Changing Tseed to 1e-012
Changing Tseed to 1e-007
Changing Tseed to 1e-013
Changing Tseed to 1e-006
Changing Tseed to 1e-014
Changing Tseed to 1e-005
Changing Tseed to 1e-015
Changing Tseed to 0.0001
Changing Tseed to 1e-016
+Changing Tseed to 1e-009
Changing Tseed to 1e-011
Changing Tseed to 1e-008
Changing Tseed to 1e-012
Changing Tseed to 1e-007
Changing Tseed to 1e-013
Changing Tseed to 1e-006
Changing Tseed to 1e-014
Changing Tseed to 1e-005
Changing Tseed to 1e-015
Changing Tseed to 0.0001
Changing Tseed to 1e-016
+Changing Tseed to 1e-009
Changing Tseed to 1e-011
Changing Tseed to 1e-008
Changing Tseed to 1e-012
Changing Tseed to 1e-007
Changing Tseed to 1e-013
Changing Tseed to 1e-006
Changing Tseed to 1e-014
Changing Tseed to 1e-005
Changing Tseed to 1e-015
Changing Tseed to 0.0001
Changing Tseed to 1e-016
+Changing Tseed to 1e-009
Changing Tseed to 1e-011
Changing Tseed to 1e-008
Changing Tseed to 1e-012
Changing Tseed to 1e-007
Changing Tseed to 1e-013
Changing Tseed to 1e-006
Changing Tseed to 1e-014
Changing Tseed to 1e-005
Changing Tseed to 1e-015
Changing Tseed to 0.0001
Changing Tseed to 1e-016
+Changing Tseed to 1e-009
Changing Tseed to 1e-011
Changing Tseed to 1e-008
Changing Tseed to 1e-012
Changing Tseed to 1e-007
Changing Tseed to 1e-013
Changing Tseed to 1e-006
Changing Tseed to 1e-014
Changing Tseed to 1e-005
Changing Tseed to 1e-015
Changing Tseed to 0.0001
Changing Tseed to 1e-016
+Changing Tseed to 1e-009
Changing Tseed to 1e-011
Changing Tseed to 1e-008
Changing Tseed to 1e-012
Changing Tseed to 1e-007
Changing Tseed to 1e-013
Changing Tseed to 1e-006
Changing Tseed to 1e-014
Changing Tseed to 1e-005
Changing Tseed to 1e-015
Changing Tseed to 0.0001
Changing Tseed to 1e-016
+Changing Tseed to 1e-009
Changing Tseed to 1e-011
Changing Tseed to 1e-008
Changing Tseed to 1e-012
Changing Tseed to 1e-007
Changing Tseed to 1e-013
Changing Tseed to 1e-006
Changing Tseed to 1e-014
Changing Tseed to 1e-005
Changing Tseed to 1e-015
Changing Tseed to 0.0001
Changing Tseed to 1e-016
+Changing Tseed to 1e-009
Changing Tseed to 1e-011
Changing Tseed to 1e-008
Changing Tseed to 1e-012
Changing Tseed to 1e-007
Changing Tseed to 1e-013
Changing Tseed to 1e-006
Changing Tseed to 1e-014
Changing Tseed to 1e-005
Changing Tseed to 1e-015
Changing Tseed to 0.0001
Changing Tseed to 1e-016
+Changing Tseed to 1e-009
Changing Tseed to 1e-011
Changing Tseed to 1e-008
Changing Tseed to 1e-012
Changing Tseed to 1e-007
Changing Tseed to 1e-013
Changing Tseed to 1e-006
Changing Tseed to 1e-014
Changing Tseed to 1e-005
Changing Tseed to 1e-015
Changing Tseed to 0.0001
Changing Tseed to 1e-016
+Changing Tseed to 1e-009
Changing Tseed to 1e-011
Changing Tseed to 1e-008
Changing Tseed to 1e-012
Changing Tseed to 1e-007
Changing Tseed to 1e-013
Changing Tseed to 1e-006
Changing Tseed to 1e-014
Changing Tseed to 1e-005
Changing Tseed to 1e-015
Changing Tseed to 0.0001
Changing Tseed to 1e-016
+Changing Tseed to 1e-009
Changing Tseed to 1e-011
Changing Tseed to 1e-008
Changing Tseed to 1e-012
Changing Tseed to 1e-007
Changing Tseed to 1e-013
Changing Tseed to 1e-006
Changing Tseed to 1e-014
Changing Tseed to 1e-005
Changing Tseed to 1e-015
Changing Tseed to 0.0001
Changing Tseed to 1e-016
+Changing Tseed to 1e-009
Changing Tseed to 1e-011
Changing Tseed to 1e-008
Changing Tseed to 1e-012
Changing Tseed to 1e-007
Changing Tseed to 1e-013
Changing Tseed to 1e-006
Changing Tseed to 1e-014
Changing Tseed to 1e-005
Changing Tseed to 1e-015
Changing Tseed to 0.0001
Changing Tseed to 1e-016
+Changing Tseed to 1e-009
Changing Tseed to 1e-011
Changing Tseed to 1e-008
Changing Tseed to 1e-012
Changing Tseed to 1e-007
Changing Tseed to 1e-013
Changing Tseed to 1e-006
Changing Tseed to 1e-014
Changing Tseed to 1e-005
Changing Tseed to 1e-015
Changing Tseed to 0.0001
Changing Tseed to 1e-016
+Changing Tseed to 1e-009
Changing Tseed to 1e-011
Changing Tseed to 1e-008
Changing Tseed to 1e-012
Changing Tseed to 1e-007
Changing Tseed to 1e-013
Changing Tseed to 1e-006
Changing Tseed to 1e-014
Changing Tseed to 1e-005
Changing Tseed to 1e-015
Changing Tseed to 0.0001
Changing Tseed to 1e-016
+Changing Tseed to 1e-009
Changing Tseed to 1e-011
Changing Tseed to 1e-008
Changing Tseed to 1e-012
Changing Tseed to 1e-007
Changing Tseed to 1e-013
Changing Tseed to 1e-006
Changing Tseed to 1e-014
Changing Tseed to 1e-005
Changing Tseed to 1e-015
Changing Tseed to 0.0001
Changing Tseed to 1e-016
+Changing Tseed to 1e-009
Changing Tseed to 1e-011
Changing Tseed to 1e-008
Changing Tseed to 1e-012
Changing Tseed to 1e-007
Changing Tseed to 1e-013
Changing Tseed to 1e-006
Changing Tseed to 1e-014
Changing Tseed to 1e-005
Changing Tseed to 1e-015
Changing Tseed to 0.0001
Changing Tseed to 1e-016
+Changing Tseed to 1e-009
Changing Tseed to 1e-011
Changing Tseed to 1e-008
Changing Tseed to 1e-012
Changing Tseed to 1e-007
Changing Tseed to 1e-013
Changing Tseed to 1e-006
to 1.02e-006
Heightened Def Con from 1.06105e-006 to 1.06217e-006
Heightened Def Con from 1.08298e-006 to 1.0831e-006
Heightened Def Con from 1.0831e-006 to 1.0851e-006
Heightened Def Con from 1.0851e-006 to 1.08523e-006
Heightened Def Con from 1.08523e-006 to 1.08524e-006
Heightened Def Con from 1.08524e-006 to 1.08524e-006
Heightened Def Con from 1.08524e-006 to 1.08537e-006
Heightened Def Con from 1.08537e-006 to 1.08551e-006
Heightened Def Con from 1.08551e-006 to 1.08551e-006
Heightened Def Con from 1.08551e-006 to 1.08551e-006
Heightened Def Con from 1.08551e-006 +to 1.08564e-006
Heightened Def Con from 1.08564e-006 to 1.08664e-006
Heightened Def Con from 1.08664e-006 to 1.08666e-006
Heightened Def Con from 1.08666e-006 to 1.08667e-006
Heightened Def Con from 1.08667e-006 to 1.08667e-006
Heightened Def Con from 1.08667e-006 to 1.0868e-006
Heightened Def Con from 1.0868e-006 to 1.0868e-006
Heightened Def Con from 1.0868e-006 to 1.08682e-006
Heightened Def Con from 1.08682e-006 to 1.08682e-006
Heightened Def Con from 1.08682e-006 to 1.08683e-006
Heightened Def Con from 1.08683e-006 to 1.08683e-006
Heightened Def Con from 1.08683e-006 to 1.08696e-006
Heightened Def Con from 1.08696e-006 to 1.08696e-006
Heightened Def Con from 1.08696e-006 to 1.08698e-006
Heightened Def Con from 1.08698e-006 to 1.08798e-006
Heightened Def Con from 1.08798e-006 +++++to 1.08798e-006
Heightened Def Con from 1.08798e-006 +++++++++++++++++++++to 1.088e-006
Heightened Def Con from 1.088e-006 ++++++to 1.088e-006
Heightened Def Con from 1.088e-006 +++++++++++++++++++++to 1.091e-006
Heightened Def Con from 1.091e-006 +++++++++++++to 1.092e-006
Heightened Def Con from 1.092e-006 +++++++++++++to 1.092e-006
Heightened Def Con from 1.092e-006 +to 1.092e-006
Heightened Def Con from 1.092e-006 ++to 1.092e-006
Heightened Def Con from 1.092e-006 +++++++to 1.092e-006
Heightened Def Con from 1.092e-006 +++++++++++to 1.092e-006
Heightened Def Con from 1.092e-006 ++++++++++++++++++++to 1.09312e-006
Heightened Def Con from 1.09312e-006 to 1.09325e-006
Heightened Def Con from 1.09325e-006 +++++++++to 1.09337e-006
Heightened Def Con from 1.09337e-006 +++to 1.09337e-006
Heightened Def Con from 1.09337e-006 +++++++++to 1.09339e-006
Heightened Def Con from 1.09339e-006 +++to 1.09339e-006
Heightened Def Con from 1.09339e-006 +++++++++++to 1.09339e-006
Heightened Def Con from 1.09339e-006 ++to 1.09339e-006
Heightened Def Con from 1.09339e-006 +++++++++++++++++++to 1.09439e-006
Heightened Def Con from 1.09439e-006 +++++++to 1.09439e-006
Heightened Def Con from 1.09439e-006 ++++++++++++++to 1.09439e-006
Heightened Def Con from 1.09439e-006 ++++++to 1.09439e-006
Heightened Def Con from 1.09439e-006 +++++++++++++++++++to 1.09539e-006
Heightened Def Con from 1.09539e-006 +to 1.09539e-006
Heightened Def Con from 1.09539e-006 to 1.09539e-006
Heightened Def Con from 1.09539e-006 to 1.09539e-006
Heightened Def Con from 1.09539e-006 +++++++++++++++++++to 1.09539e-006
Heightened Def Con from 1.09539e-006 +++++to 1.09541e-006
Heightened Def Con from 1.09541e-006 +++++to 1.09541e-006
Heightened Def Con from 1.09541e-006 +++++++++++++++++++to 1.09541e-006
Heightened Def Con from 1.09541e-006 ++to 1.09541e-006
Heightened Def Con from 1.09541e-006 +++++to 1.09541e-006
Heightened Def Con from 1.09541e-006 to 1.09541e-006
Heightened Def Con from 1.09541e-006 ++to 1.09541e-006
Heightened Def Con from 1.09541e-006 ++to 1.09554e-006
Heightened Def Con from 1.09554e-006 ++++++++to 1.09654e-006
Heightened Def Con from 1.09654e-006 +to 1.09654e-006
Heightened Def Con from 1.09654e-006 +++++++++to 1.09654e-006
Heightened Def Con from 1.09654e-006 ++++to 1.09654e-006
Heightened Def Con from 1.09654e-006 ++++++++to 1.09654e-006
Heightened Def Con from 1.09654e-006 +++to 1.09654e-006
Heightened Def Con from 1.09654e-006 +to 1.09654e-006
Heightened Def Con from 1.09654e-006 ++++to 1.09754e-006
Heightened Def Con from 1.09754e-006 to 1.09754e-006
Heightened Def Con from 1.09754e-006 ++++++++++++to 1.09754e-006
Heightened Def Con from 1.09754e-006 +++++++++++++++to 1.09755e-006
Heightened Def Con from 1.09755e-006 ++++++++++to 1.09755e-006
Heightened Def Con from 1.09755e-006 +++++++++++++++++++to 1.10156e-006
Heightened Def Con from 1.10156e-006 +++++++++++++to 1.10156e-006
Heightened Def Con from 1.10156e-006 +to 1.10156e-006
Heightened Def Con from 1.10156e-006 ++++++to 1.10156e-006
Heightened Def Con from 1.10156e-006 +++++++++++++++++++to 1.10256e-006
Heightened Def Con from 1.10256e-006 ++++to 1.10256e-006
Heightened Def Con from 1.10256e-006 ++to 1.10256e-006
Heightened Def Con from 1.10256e-006 ++++++to 1.10257e-006
Heightened Def Con from 1.10257e-006 to 1.10257e-006
Heightened Def Con from 1.10257e-006 ++++++++++++++++++to 1.10257e-006
Heightened Def Con from 1.10257e-006 to 1.10257e-006
Heightened Def Con from 1.10257e-006 +++++++++++++++++++to 1.1027e-006
Heightened Def Con from 1.1027e-006 +++++to 1.1027e-006
Heightened Def Con from 1.1027e-006 +++++++++++++to 1.1027e-006
Heightened Def Con from 1.1027e-006 +++++++++to 1.1027e-006
Heightened Def Con from 1.1027e-006 ++++++++++++++++++to 1.1057e-006
Heightened Def Con from 1.1057e-006 ++++++++++to 1.1057e-006
Heightened Def Con from 1.1057e-006 ++++++++++++to 1.10571e-006
Heightened Def Con from 1.10571e-006 +++++++++++++++++to 1.10573e-006
Heightened Def Con from 1.10573e-006 +++++++++++++++++to 1.10575e-006
Heightened Def Con from 1.10575e-006 ++++++++++++to 1.10575e-006
Heightened Def Con from 1.10575e-006 ++to 1.10575e-006
Heightened Def Con from 1.10575e-006 +++++to 1.10575e-006
Heightened Def Con from 1.10575e-006 ++to 1.10575e-006
Heightened Def Con from 1.10575e-006 +++to 1.10576e-006
Heightened Def Con from 1.10576e-006 +to 1.10576e-006
Heightened Def Con from 1.10576e-006 ++++++++++++to 1.10576e-006
Heightened Def Con from 1.10576e-006 +++++++++++++++++to 1.10578e-006
Heightened Def Con from 1.10578e-006 ++to 1.10578e-006
Heightened Def Con from 1.10578e-006 +++++to 1.10578e-006
Heightened Def Con from 1.10578e-006 +to 1.10578e-006
Heightened Def Con from 1.10578e-006 +++++++++++++++++to 1.10678e-006
Heightened Def Con from 1.10678e-006 ++++++++++to 1.10678e-006
Heightened Def Con from 1.10678e-006 ++to 1.10678e-006
Heightened Def Con from 1.10678e-006 ++to 1.10678e-006
Heightened Def Con from 1.10678e-006 ++++++++to 1.10678e-006
Heightened Def Con from 1.10678e-006 +++++++++++to 1.10678e-006
Heightened Def Con from 1.10678e-006 +++++++++++++++++to 1.1079e-006
Heightened Def Con from 1.1079e-006 +++++++++++++++++to 1.10803e-006
Heightened Def Con from 1.10803e-006 +++++++++++to 1.10903e-006
Heightened Def Con from 1.10903e-006 +++++++++++++++++to 1.11003e-006
Heightened Def Con from 1.11003e-006 to 1.11003e-006
Heightened Def Con from 1.11003e-006 ++++++++++++++++to 1.11004e-006
Heightened Def Con from 1.11004e-006 +to 1.11005e-006
Heightened Def Con from 1.11005e-006 to 1.11005e-006
Heightened Def Con from 1.11005e-006 +++++++++to 1.11005e-006
Heightened Def Con from 1.11005e-006 ++to 1.11006e-006
Heightened Def Con from 1.11006e-006 +to 1.11006e-006
Heightened Def Con from 1.11006e-006 +++++to 1.11006e-006
Heightened Def Con from 1.11006e-006 +to 1.11006e-006
Heightened Def Con from 1.11006e-006 ++++++++++++++++++to 1.11306e-006
Heightened Def Con from 1.11306e-006 to 1.11306e-006
Heightened Def Con from 1.11306e-006 ++++++++++++++++to 1.11306e-006
Heightened Def Con from 1.11306e-006 +++to 1.11306e-006
Heightened Def Con from 1.11306e-006 ++++++to 1.11306e-006
Heightened Def Con from 1.11306e-006 ++++to 1.11306e-006
Heightened Def Con from 1.11306e-006 +++++++++to 1.11306e-006
Heightened Def Con from 1.11306e-006 +++++++++++++++to 1.11331e-006
Heightened Def Con from 1.11331e-006 ++++to 1.11333e-006
Heightened Def Con from 1.11333e-006 to 1.11333e-006
Heightened Def Con from 1.11333e-006 ++++++++++to 1.11433e-006
Heightened Def Con from 1.11433e-006 ++to 1.11435e-006
Heightened Def Con from 1.11435e-006 ++++++++++to 1.11435e-006
Heightened Def Con from 1.11435e-006 +to 1.11436e-006
Heightened Def Con from 1.11436e-006 to 1.11438e-006
Heightened Def Con from 1.11438e-006 to 1.11438e-006
Heightened Def Con from 1.11438e-006 +++++to 1.11439e-006
Heightened Def Con from 1.11439e-006 ++++to 1.11439e-006
Heightened Def Con from 1.11439e-006 ++++to 1.11439e-006
Heightened Def Con from 1.11439e-006 ++++++++to 1.11441e-006
Heightened Def Con from 1.11441e-006 ++++to 1.11441e-006
Heightened Def Con from 1.11441e-006 to 1.11441e-006
Heightened Def Con from 1.11441e-006 to 1.11441e-006
Heightened Def Con from 1.11441e-006 +to 1.11441e-006
Heightened Def Con from 1.11441e-006 +++to 1.11441e-006
Heightened Def Con from 1.11441e-006 ++to 1.11443e-006
Heightened Def Con from 1.11443e-006 +to 1.11443e-006
Heightened Def Con from 1.11443e-006 +++++++++++++++to 1.11443e-006
Heightened Def Con from 1.11443e-006 +++++++++++++to 1.11443e-006
Heightened Def Con from 1.11443e-006 +++++++++++to 1.11568e-006
Heightened Def Con from 1.11568e-006 ++++++++++++++++to 1.11568e-006
Heightened Def Con from 1.11568e-006 +++++++++++++++to 1.1158e-006
Heightened Def Con from 1.1158e-006 ++++++++++++++++to 1.1178e-006
Heightened Def Con from 1.1178e-006 ++++++++++++++++to 1.1178e-006
Heightened Def Con from 1.1178e-006 +++++++++++++++to 1.1178e-006
Heightened Def Con from 1.1178e-006 +++++to 1.1188e-006
Heightened Def Con from 1.1188e-006 ++to 1.1188e-006
Heightened Def Con from 1.1188e-006 ++++to 1.1188e-006
Heightened Def Con from 1.1188e-006 ++to 1.1188e-006
Heightened Def Con from 1.1188e-006 ++++++++to 1.1188e-006
Heightened Def Con from 1.1188e-006 +++to 1.11882e-006
Heightened Def Con from 1.11882e-006 +++to 1.11882e-006
Heightened Def Con from 1.11882e-006 ++++++++++++to 1.11882e-006
Heightened Def Con from 1.11882e-006 +to 1.11882e-006
Heightened Def Con from 1.11882e-006 +++++++++to 1.11882e-006
Heightened Def Con from 1.11882e-006 ++++++to 1.11883e-006
Heightened Def Con from 1.11883e-006 to 1.11883e-006
Heightened Def Con from 1.11883e-006 ++to 1.11883e-006
Heightened Def Con from 1.11883e-006 to 1.11883e-006
Heightened Def Con from 1.11883e-006 +++++++++++to 1.11983e-006
Heightened Def Con from 1.11983e-006 +++to 1.11983e-006
Heightened Def Con from 1.11983e-006 +to 1.11983e-006
Heightened Def Con from 1.11983e-006 ++++++to 1.11983e-006
Heightened Def Con from 1.11983e-006 to 1.11983e-006
Heightened Def Con from 1.11983e-006 +++++to 1.11983e-006
Heightened Def Con from 1.11983e-006 ++++++to 1.11984e-006
Heightened Def Con from 1.11984e-006 ++++++++++to 1.11984e-006
Heightened Def Con from 1.11984e-006 ++++to 1.11984e-006
Heightened Def Con from 1.11984e-006 +++++++++++++++++to 1.11996e-006
Heightened Def Con from 1.11996e-006 +++++++++to 1.11996e-006
Heightened Def Con from 1.11996e-006 ++++++++to 1.11996e-006
Heightened Def Con from 1.11996e-006 ++++++++++++to 1.12096e-006
Heightened Def Con from 1.12096e-006 +++++++++++++++++to 1.12209e-006
Heightened Def Con from 1.12209e-006 +++to 1.12209e-006
Heightened Def Con from 1.12209e-006 +to 1.12223e-006
Heightened Def Con from 1.12223e-006 ++++to 1.12223e-006
Heightened Def Con from 1.12223e-006 ++++++to 1.12223e-006
Heightened Def Con from 1.12223e-006 +to 1.12223e-006
Heightened Def Con from 1.12223e-006 +to 1.12235e-006
Heightened Def Con from 1.12235e-006 +++++++to 1.12235e-006
Heightened Def Con from 1.12235e-006 +to 1.12237e-006
Heightened Def Con from 1.12237e-006 ++++to 1.12237e-006
Heightened Def Con from 1.12237e-006 +++++++++++++++++to 1.12239e-006
Heightened Def Con from 1.12239e-006 ++++++++to 1.12239e-006
Heightened Def Con from 1.12239e-006 to 1.12239e-006
Heightened Def Con from 1.12239e-006 ++++++++to 1.12339e-006
Heightened Def Con from 1.12339e-006 ++++to 1.12339e-006
Heightened Def Con from 1.12339e-006 +++to 1.12339e-006
Heightened Def Con from 1.12339e-006 ++++++++to 1.12339e-006
Heightened Def Con from 1.12339e-006 ++++++++++++++++to 1.1234e-006
Heightened Def Con from 1.1234e-006 to 1.1234e-006
Heightened Def Con from 1.1234e-006 +++++++++++++++++to 1.1234e-006
Heightened Def Con from 1.1234e-006 ++++++++to 1.1234e-006
Heightened Def Con from 1.1234e-006 to 1.1234e-006
Heightened Def Con from 1.1234e-006 ++++++to 1.1234e-006
Heightened Def Con from 1.1234e-006 +++++++++++++++++to 1.12353e-006
Heightened Def Con from 1.12353e-006 +++++++++to 1.12353e-006
Heightened Def Con from 1.12353e-006 ++++++++++to 1.12353e-006
Heightened Def Con from 1.12353e-006 ++to 1.12353e-006
Heightened Def Con from 1.12353e-006 ++++++++++++to 1.12565e-006
Heightened Def Con from 1.12653e-006 to 1.12953e-006
Heightened Def Con from 1.12957e-006 to 1.13257e-006
Heightened Def Con from 1.14207e-006 to 1.14307e-006
Heightened Def Con from 1.14307e-006 to 1.14332e-006
Heightened Def Con from 1.14332e-006 to 1.14434e-006
Heightened Def Con from 1.14434e-006 to 1.14546e-006
Heightened Def Con from 1.14546e-006 to 1.14571e-006
Heightened Def Con from 1.17172e-006 to 1.17175e-006
Heightened Def Con from 1.17178e-006 to 1.17192e-006
Heightened Def Con from 1.17192e-006 to 1.17192e-006
Heightened Def Con from 1.17192e-006 to 1.17405e-006
Heightened Def Con from 1.17405e-006 to 1.17418e-006
Heightened Def Con from 1.17418e-006 to 1.17418e-006
Heightened Def Con from 1.17418e-006 to 1.17418e-006
Heightened Def Con from 1.17418e-006 to 1.17531e-006
Heightened Def Con from 1.17644e-006 to 1.17671e-006
Heightened Def Con from 1.17672e-006 to 1.17773e-006
Heightened Def Con from 1.17774e-006 to 1.17788e-006
Heightened Def Con from 1.17788e-006 to 1.17791e-006
Heightened Def Con from 1.17798e-006 to 1.17911e-006
Heightened Def Con from 1.17915e-006 to 1.17915e-006
Heightened Def Con from 1.17915e-006 to 1.18215e-006
Heightened Def Con from 1.53677e-006 to 1.53677e-006
Heightened Def Con from 1.53677e-006 to 1.53714e-006
Heightened Def Con from 1.53739e-006 to 1.53852e-006
Heightened Def Con from 1.53943e-006 to 1.54056e-006
Heightened Def Con from 1.54056e-006 to 1.54081e-006
Heightened Def Con from 1.54081e-006 to 1.54294e-006
Heightened Def Con from 1.57283e-006 to 1.57483e-006
Heightened Def Con from 1.57508e-006 to 1.57708e-006
Heightened Def Con from 1.57723e-006 to 1.57835e-006
Heightened Def Con from 2.07265e-006 to 2.07377e-006
Heightened Def Con from 2.91074e-006 to 2.91287e-006
Heightened Def Con from 2.92806e-006 to 2.93006e-006
Heightened Def Con from 3.16406e-006 to 3.16519e-006
Heightened Def Con from 3.16522e-006 to 3.16822e-006
Heightened Def Con from 3.258e-006 to 3.26012e-006
Heightened Def Con from 3.26232e-006 to 3.26444e-006
Heightened Def Con from 3.26471e-006 to 3.26683e-006
Heightened Def Con from 3.27472e-006 to 3.27474e-006
Heightened Def Con from 3.27474e-006 to 3.27774e-006
Heightened Def Con from 3.7368e-006 to 3.7388e-006
Heightened Def Con from 3.92599e-006 to 3.92899e-006
Heightened Def Con from 4.7999e-006 to 4.8019e-006
Heightened Def Con from 5.2185e-006 to 5.2215e-006
Heightened Def Con from 5.72018e-006 to 5.72318e-006
Heightened Def Con from 5.72585e-006 to 5.72885e-006
Heightened Def Con from 5.77095e-006 to 5.77295e-006
Heightened Def Con from 5.7747e-006 to 5.7777e-006
Heightened Def Con from 5.77977e-006 to 5.78277e-006
Heightened Def Con from 5.84205e-006 to 5.84705e-006
Heightened Def Con from 5.85635e-006 to 5.86047e-006
Heightened Def Con from 5.86049e-006 to 5.86062e-006
Heightened Def Con from 5.86062e-006 to 5.86099e-006
Heightened Def Con from 5.86101e-006 to 5.86213e-006
Heightened Def Con from 5.86238e-006 to 5.86451e-006
Heightened Def Con from 5.86679e-006 to 5.86682e-006
Heightened Def Con from 5.86682e-006 to 5.86707e-006
Heightened Def Con from 5.86721e-006 to 5.86923e-006
Heightened Def Con from 5.86927e-006 to 5.87227e-006
Heightened Def Con from 5.90456e-006 to 5.90468e-006
Heightened Def Con from 5.9048e-006 to 5.9078e-006
Heightened Def Con from 5.9156e-006 to 5.9176e-006
Heightened Def Con from 5.91775e-006 to 5.91975e-006
Heightened Def Con from 5.92147e-006 to 5.92347e-006
Heightened Def Con from 5.925e-006 to 5.927e-006
Heightened Def Con from 5.9272e-006 to 5.9292e-006
Heightened Def Con from 5.92926e-006 to 5.93126e-006
Heightened Def Con from 7.55075e-006 ++to 7.55175e-006
Heightened Def Con from 7.55175e-006 +to 7.55188e-006
Heightened Def Con from 7.55188e-006 ++++to 7.55188e-006
Heightened Def Con from 7.55188e-006 to 7.55188e-006
Heightened Def Con from 7.55188e-006 ++++to 7.55188e-006
Heightened Def Con from 7.55188e-006 +to 7.553e-006
Heightened Def Con from 7.553e-006 to 7.55313e-006
Heightened Def Con from 7.55313e-006 ++++++to 7.55313e-006
Heightened Def Con from 7.55313e-006 +to 7.55314e-006
Heightened Def Con from 7.55314e-006 +++to 7.55327e-006
Heightened Def Con from 7.55327e-006 +to 7.55327e-006
Heightened Def Con from 7.55327e-006 to 7.55327e-006
Heightened Def Con from 7.55327e-006 to 7.55327e-006
Heightened Def Con from 7.55327e-006 +++to 7.55327e-006
Heightened Def Con from 7.55327e-006 +to 7.55427e-006
Heightened Def Con from 7.55427e-006 +++to 7.55427e-006
Heightened Def Con from 7.55427e-006 to 7.55429e-006
Heightened Def Con from 7.55429e-006 +to 7.55441e-006
Heightened Def Con from 7.55441e-006 to 7.55441e-006
Heightened Def Con from 7.55441e-006 to 7.55441e-006
Heightened Def Con from 7.55441e-006 to 7.55441e-006
Heightened Def Con from 7.55441e-006 ++to 7.55454e-006
Heightened Def Con from 7.55454e-006 to 7.55454e-006
Heightened Def Con from 7.55454e-006 to 7.55454e-006
Heightened Def Con from 7.55454e-006 to 7.55454e-006
Heightened Def Con from 7.55454e-006 to 7.55454e-006
Heightened Def Con from 7.55454e-006 to 7.55454e-006
Heightened Def Con from 7.55454e-006 ++++++++to 7.55455e-006
Heightened Def Con from 7.55455e-006 +to 7.55455e-006
Heightened Def Con from 7.55455e-006 +to 7.55467e-006
Heightened Def Con from 7.55467e-006 +to 7.55567e-006
Heightened Def Con from 7.55567e-006 +to 7.55567e-006
Heightened Def Con from 7.55567e-006 +to 7.5568e-006
Heightened Def Con from 7.5568e-006 ++++++to 7.55682e-006
Heightened Def Con from 7.55682e-006 ++++to 7.55682e-006
Heightened Def Con from 7.55682e-006 ++++++++to 7.55683e-006
Heightened Def Con from 7.55683e-006 to 7.55683e-006
Heightened Def Con from 7.55683e-006 ++++++++to 7.55685e-006
Heightened Def Con from 7.55685e-006 to 7.55685e-006
Heightened Def Con from 7.55685e-006 ++++to 7.55685e-006
Heightened Def Con from 7.55685e-006 +++++to 7.55785e-006
Heightened Def Con from 7.55785e-006 +++to 7.55785e-006
Heightened Def Con from 7.55785e-006 +to 7.55885e-006
Heightened Def Con from 7.55885e-006 +to 7.55885e-006
Heightened Def Con from 7.55885e-006 to 7.55885e-006
Heightened Def Con from 7.55885e-006 +++to 7.55885e-006
Heightened Def Con from 7.55885e-006 ++++to 7.55888e-006
Heightened Def Con from 7.55888e-006 to 7.55888e-006
Heightened Def Con from 7.55888e-006 to 7.55888e-006
Heightened Def Con from 7.55888e-006 +++to 7.55888e-006
Heightened Def Con from 7.55888e-006 +to 7.55888e-006
Heightened Def Con from 7.55888e-006 ++to 7.55888e-006
Heightened Def Con from 7.55888e-006 ++++to 7.55888e-006
Heightened Def Con from 7.55888e-006 ++to 7.55901e-006
Heightened Def Con from 7.55901e-006 +++to 7.55903e-006
Heightened Def Con from 7.55903e-006 +++++to 7.55903e-006
Heightened Def Con from 7.55903e-006 to 7.55903e-006
Heightened Def Con from 7.55903e-006 to 7.55904e-006
Heightened Def Con from 7.55904e-006 +to 7.55916e-006
Heightened Def Con from 7.55916e-006 +++to 7.55916e-006
Heightened Def Con from 7.55916e-006 +to 7.55916e-006
Heightened Def Con from 7.55916e-006 +++++to 7.55916e-006
Heightened Def Con from 7.55916e-006 to 7.55917e-006
Heightened Def Con from 7.55917e-006 to 7.55917e-006
Heightened Def Con from 7.55917e-006 ++to 7.55918e-006
Heightened Def Con from 7.55918e-006 ++to 7.55918e-006
Heightened Def Con from 7.55918e-006 +++++to 7.5592e-006
Heightened Def Con from 7.5592e-006 +++++to 7.5592e-006
Heightened Def Con from 7.5592e-006 ++to 7.55932e-006
Heightened Def Con from 7.55932e-006 +to 7.55945e-006
Heightened Def Con from 7.55945e-006 +to 7.55945e-006
Heightened Def Con from 7.55945e-006 +to 7.55946e-006
Heightened Def Con from 7.55946e-006 +to 7.56046e-006
Heightened Def Con from 7.56046e-006 +to 7.56048e-006
Heightened Def Con from 7.56048e-006 to 7.56048e-006
Heightened Def Con from 7.56048e-006 +++to 7.5616e-006
Heightened Def Con from 7.5616e-006 +to 7.56162e-006
Heightened Def Con from 7.56162e-006 to 7.56175e-006
Heightened Def Con from 7.56175e-006 +to 7.56175e-006
Heightened Def Con from 7.56175e-006 to 7.56175e-006
Heightened Def Con from 7.56175e-006 to 7.56175e-006
Heightened Def Con from 7.56175e-006 +to 7.56187e-006
Heightened Def Con from 7.56187e-006 ++to 7.56187e-006
Heightened Def Con from 7.56187e-006 ++++++to 7.56187e-006
Heightened Def Con from 7.56187e-006 ++to 7.56289e-006
Heightened Def Con from 7.56289e-006 to 7.56289e-006
Heightened Def Con from 7.56289e-006 +++++to 7.56289e-006
Heightened Def Con from 7.56289e-006 ++++to 7.56289e-006
Heightened Def Con from 7.56289e-006 to 7.56289e-006
Heightened Def Con from 7.56289e-006 ++to 7.56389e-006
Heightened Def Con from 7.56499e-006 ++++++++to 7.56499e-006
Heightened Def Con from 7.56499e-006 ++to 7.56499e-006
Heightened Def Con from 7.56499e-006 to 7.56499e-006
Heightened Def Con from 7.56499e-006 ++to 7.56499e-006
Heightened Def Con from 7.56499e-006 ++to 7.56501e-006
Heightened Def Con from 7.56501e-006 to 7.56501e-006
Heightened Def Con from 7.56501e-006 ++++to 7.56502e-006
Heightened Def Con from 7.56502e-006 to 7.56503e-006
Heightened Def Con from 7.56503e-006 ++to 7.56503e-006
Heightened Def Con from 7.56503e-006 +++to 7.56515e-006
Heightened Def Con from 7.56515e-006 +++++to 7.56515e-006
Heightened Def Con from 7.56515e-006 +++to 7.56515e-006
Heightened Def Con from 7.56515e-006 to 7.56715e-006
Heightened Def Con from 7.56715e-006 +++++to 7.56728e-006
Heightened Def Con from 7.56728e-006 +++++++++to 7.56828e-006
Heightened Def Con from 7.56828e-006 to 7.56828e-006
Heightened Def Con from 7.56828e-006 +to 7.56828e-006
Heightened Def Con from 7.56828e-006 to 7.56828e-006
Heightened Def Con from 7.56828e-006 ++to 7.56841e-006
Heightened Def Con from 7.56841e-006 ++to 7.56841e-006
Heightened Def Con from 7.56841e-006 ++++++to 7.56841e-006
Heightened Def Con from 7.56841e-006 to 7.56841e-006
Heightened Def Con from 7.56841e-006 +to 7.56842e-006
Heightened Def Con from 7.56842e-006 +to 7.56842e-006
Heightened Def Con from 7.56842e-006 +to 7.56842e-006
Heightened Def Con from 7.56842e-006 +to 7.56844e-006
Heightened Def Con from 7.56844e-006 ++to 7.56944e-006
Heightened Def Con from 7.56944e-006 to 7.56944e-006
Heightened Def Con from 7.56944e-006 +++to 7.56944e-006
Heightened Def Con from 7.56944e-006 +++to 7.56957e-006
Heightened Def Con from 7.56957e-006 +to 7.56957e-006
Heightened Def Con from 7.56957e-006 ++to 7.56957e-006
Heightened Def Con from 7.56957e-006 ++++++++++++++to 7.57057e-006
Heightened Def Con from 7.57057e-006 ++++to 7.57057e-006
Heightened Def Con from 7.57057e-006 +++++to 7.57057e-006
Heightened Def Con from 7.57057e-006 ++to 7.57169e-006
Heightened Def Con from 7.57169e-006 +to 7.57171e-006
Heightened Def Con from 7.57174e-006 to 7.57174e-006
Heightened Def Con from 7.57174e-006 +++++++to 7.57274e-006
Heightened Def Con from 7.57274e-006 ++to 7.57274e-006
Heightened Def Con from 7.57274e-006 ++to 7.57274e-006
Heightened Def Con from 7.57274e-006 +++to 7.57275e-006
Heightened Def Con from 7.57275e-006 to 7.57275e-006
Heightened Def Con from 7.57275e-006 +to 7.57275e-006
Heightened Def Con from 7.57275e-006 to 7.57375e-006
Heightened Def Con from 7.57375e-006 ++++to 7.57375e-006
Heightened Def Con from 7.57375e-006 ++to 7.57375e-006
Heightened Def Con from 7.57375e-006 to 7.57375e-006
Heightened Def Con from 7.57375e-006 +++to 7.57375e-006
Heightened Def Con from 7.57375e-006 +to 7.57375e-006
Heightened Def Con from 7.57375e-006 ++++++to 7.57475e-006
Heightened Def Con from 7.57475e-006 ++++to 7.57475e-006
Heightened Def Con from 7.57475e-006 ++to 7.57475e-006
Heightened Def Con from 7.57475e-006 to 7.57475e-006
Heightened Def Con from 7.57475e-006 +to 7.57487e-006
Heightened Def Con from 7.57487e-006 to 7.57487e-006
Heightened Def Con from 7.57487e-006 ++to 7.57587e-006
Heightened Def Con from 7.57587e-006 +to 7.57588e-006
Heightened Def Con from 7.57588e-006 ++++++to 7.57588e-006
Heightened Def Con from 7.57588e-006 ++to 7.57588e-006
Heightened Def Con from 7.57588e-006 ++++to 7.57588e-006
Heightened Def Con from 7.57588e-006 to 7.5759e-006
Heightened Def Con from 7.5759e-006 +++to 7.5769e-006
Heightened Def Con from 7.5769e-006 ++to 7.5769e-006
Heightened Def Con from 7.5769e-006 +++to 7.5769e-006
Heightened Def Con from 7.5769e-006 +to 7.5769e-006
Heightened Def Con from 7.5769e-006 to 7.57702e-006
Heightened Def Con from 7.57702e-006 to 7.57716e-006
Heightened Def Con from 7.57716e-006 +++to 7.57729e-006
Heightened Def Con from 7.57729e-006 to 7.57729e-006
Heightened Def Con from 7.57729e-006 to 7.5773e-006
Heightened Def Con from 7.5773e-006 +++++++to 7.57842e-006
Heightened Def Con from 7.57842e-006 ++++to 7.57844e-006
Heightened Def Con from 7.57847e-006 +to 7.58047e-006
Heightened Def Con from 7.58047e-006 +to 7.58047e-006
Heightened Def Con from 7.58047e-006 to 7.58047e-006
Heightened Def Con from 7.58047e-006 ++to 7.58047e-006
Heightened Def Con from 7.58047e-006 +++to 7.58047e-006
Heightened Def Con from 7.58047e-006 +++to 7.58147e-006
Heightened Def Con from 7.58147e-006 +++++to 7.58247e-006
Heightened Def Con from 7.58247e-006 ++to 7.58249e-006
Heightened Def Con from 7.58249e-006 +to 7.58249e-006
Heightened Def Con from 7.58249e-006 ++to 7.58249e-006
Heightened Def Con from 7.58249e-006 to 7.5825e-006
Heightened Def Con from 7.5825e-006 to 7.5825e-006
Heightened Def Con from 7.5825e-006 +to 7.5825e-006
Heightened Def Con from 7.5825e-006 +to 7.58263e-006
Heightened Def Con from 7.58263e-006 ++++to 7.58264e-006
Heightened Def Con from 7.58264e-006 to 7.58264e-006
Heightened Def Con from 7.58264e-006 to 7.58264e-006
Heightened Def Con from 7.58264e-006 +to 7.58278e-006
Heightened Def Con from 7.58278e-006 to 7.58278e-006
Heightened Def Con from 7.58278e-006 +to 7.58378e-006
Heightened Def Con from 7.58378e-006 +to 7.58378e-006
Heightened Def Con from 7.58378e-006 ++++to 7.58378e-006
Heightened Def Con from 7.58378e-006 ++to 7.58391e-006
Heightened Def Con from 7.58391e-006 ++++++++to 7.58403e-006
Heightened Def Con from 7.58403e-006 ++to 7.58403e-006
Heightened Def Con from 7.58403e-006 ++++++++to 7.58405e-006
Heightened Def Con from 7.58405e-006 +to 7.58505e-006
Heightened Def Con from 7.58507e-006 to 7.58508e-006
Heightened Def Con from 7.58512e-006 +to 7.58512e-006
Heightened Def Con from 7.58512e-006 to 7.58513e-006
Heightened Def Con from 7.58514e-006 ++to 7.58526e-006
Heightened Def Con from 7.58526e-006 to 7.58539e-006
Heightened Def Con from 7.58539e-006 +++to 7.58539e-006
Heightened Def Con from 7.58539e-006 to 7.58539e-006
Heightened Def Con from 7.58539e-006 to 7.58539e-006
Heightened Def Con from 7.58539e-006 ++++to 7.58639e-006
Heightened Def Con from 7.58639e-006 ++to 7.58639e-006
Heightened Def Con from 7.58639e-006 +++to 7.58639e-006
Heightened Def Con from 7.58639e-006 ++to 7.58639e-006
Heightened Def Con from 7.58639e-006 ++++to 7.58639e-006
Heightened Def Con from 7.58639e-006 ++++to 7.58651e-006
Heightened Def Con from 7.58651e-006 to 7.58752e-006
Heightened Def Con from 7.58752e-006 +to 7.58753e-006
Heightened Def Con from 7.58753e-006 ++to 7.58753e-006
Heightened Def Con from 7.58753e-006 +++++to 7.58766e-006
Heightened Def Con from 7.58766e-006 +++++++to 7.58766e-006
Heightened Def Con from 7.58766e-006 +++++++++to 7.58766e-006
Heightened Def Con from 7.58766e-006 +++++to 7.58766e-006
Heightened Def Con from 7.58766e-006 ++to 7.58766e-006
Heightened Def Con from 7.58766e-006 ++to 7.58766e-006
Heightened Def Con from 7.58766e-006 +to 7.58779e-006
Heightened Def Con from 7.58779e-006 ++++to 7.58779e-006
Heightened Def Con from 7.58779e-006 to 7.58879e-006
Heightened Def Con from 7.58879e-006 +++to 7.58879e-006
Heightened Def Con from 7.58879e-006 ++++++++to 7.58879e-006
Heightened Def Con from 7.58879e-006 to 7.5888e-006
Heightened Def Con from 7.5888e-006 to 7.5888e-006
Heightened Def Con from 7.5888e-006 +++to 7.5888e-006
Heightened Def Con from 7.5888e-006 +to 7.5888e-006
Heightened Def Con from 7.5888e-006 to 7.58981e-006
Heightened Def Con from 7.58981e-006 ++to 7.58995e-006
Heightened Def Con from 7.58995e-006 to 7.58995e-006
Heightened Def Con from 7.58995e-006 ++++++++++to 7.58995e-006
Heightened Def Con from 7.58995e-006 ++++to 7.58995e-006
Heightened Def Con from 7.58995e-006 to 7.58995e-006
Heightened Def Con from 7.58995e-006 +to 7.58995e-006
Heightened Def Con from 7.58995e-006 +++++to 7.59007e-006
Heightened Def Con from 7.59007e-006 to 7.59007e-006
Heightened Def Con from 7.59007e-006 +++++++++to 7.59009e-006
Heightened Def Con from 7.59009e-006 to 7.59009e-006
Heightened Def Con from 7.59009e-006 +to 7.59009e-006
Heightened Def Con from 7.59009e-006 +to 7.59209e-006
Heightened Def Con from 7.59209e-006 ++to 7.59309e-006
Heightened Def Con from 7.59309e-006 +to 7.59409e-006
Heightened Def Con from 7.59409e-006 +++++to 7.59409e-006
Heightened Def Con from 7.59409e-006 to 7.59409e-006
Heightened Def Con from 7.59409e-006 ++to 7.59409e-006
Heightened Def Con from 7.59409e-006 to 7.59409e-006
Heightened Def Con from 7.59409e-006 +to 7.59409e-006
Heightened Def Con from 7.59409e-006 ++++++to 7.5941e-006
Heightened Def Con from 7.5941e-006 to 7.5941e-006
Heightened Def Con from 7.5941e-006 +++to 7.5941e-006
Heightened Def Con from 7.5941e-006 ++to 7.59411e-006
Heightened Def Con from 7.59411e-006 to 7.59411e-006
Heightened Def Con from 7.59411e-006 +++to 7.59511e-006
Heightened Def Con from 7.59511e-006 ++++to 7.59511e-006
Heightened Def Con from 7.59511e-006 +to 7.59524e-006
Heightened Def Con from 7.59524e-006 to 7.59524e-006
Heightened Def Con from 7.59524e-006 to 7.59524e-006
Heightened Def Con from 7.59524e-006 +to 7.59525e-006
Heightened Def Con from 7.59525e-006 +to 7.59525e-006
Heightened Def Con from 7.59525e-006 +to 7.59525e-006
Heightened Def Con from 7.59525e-006 to 7.59525e-006
Heightened Def Con from 7.59525e-006 +++to 7.59526e-006
Heightened Def Con from 7.59526e-006 to 7.59527e-006
Heightened Def Con from 7.59527e-006 +to 7.59527e-006
Heightened Def Con from 7.59527e-006 +++++++to 7.59527e-006
Heightened Def Con from 7.59527e-006 ++to 7.59529e-006
Heightened Def Con from 7.59529e-006 +to 7.59542e-006
Heightened Def Con from 7.59542e-006 ++++to 7.59554e-006
Heightened Def Con from 7.59579e-006 to 7.59581e-006
Heightened Def Con from 7.59581e-006 to 7.59581e-006
Heightened Def Con from 7.59581e-006 to 7.59581e-006
Heightened Def Con from 7.59581e-006 +to 7.59581e-006
Heightened Def Con from 7.59581e-006 to 7.59581e-006
Heightened Def Con from 7.59581e-006 +to 7.59581e-006
Heightened Def Con from 7.59581e-006 +++++++to 7.59581e-006
Heightened Def Con from 7.59581e-006 to 7.59581e-006
Heightened Def Con from 7.59581e-006 +++to 7.59581e-006
Heightened Def Con from 7.59581e-006 to 7.59581e-006
Heightened Def Con from 7.59581e-006 to 7.59581e-006
Heightened Def Con from 7.59581e-006 to 7.59581e-006
Heightened Def Con from 7.59581e-006 +to 7.59595e-006
Heightened Def Con from 7.59595e-006 to 7.59595e-006
Heightened Def Con from 7.59595e-006 ++to 7.59608e-006
Heightened Def Con from 7.59608e-006 to 7.59608e-006
Heightened Def Con from 7.59608e-006 to 7.59608e-006
Heightened Def Con from 7.59608e-006 ++to 7.59708e-006
Heightened Def Con from 7.59708e-006 to 7.59708e-006
Heightened Def Con from 7.59708e-006 to 7.59708e-006
Heightened Def Con from 7.59708e-006 +to 7.59708e-006
Heightened Def Con from 7.59708e-006 to 7.59708e-006
Heightened Def Con from 7.59708e-006 +++to 7.59708e-006
Heightened Def Con from 7.59708e-006 to 7.59709e-006
Heightened Def Con from 7.59709e-006 ++++++to 7.59709e-006
Heightened Def Con from 7.59709e-006 +++to 7.59709e-006
Heightened Def Con from 7.59709e-006 ++++++to 7.59809e-006
Heightened Def Con from 7.59809e-006 to 7.59809e-006
Heightened Def Con from 7.59809e-006 +to 7.5981e-006
Heightened Def Con from 7.5981e-006 +to 7.5981e-006
Heightened Def Con from 7.5981e-006 +to 7.5981e-006
Heightened Def Con from 7.5981e-006 +to 7.59822e-006
Heightened Def Con from 7.59822e-006 +to 7.59822e-006
Heightened Def Con from 7.59822e-006 to 7.59822e-006
Heightened Def Con from 7.59822e-006 ++++++++to 7.59824e-006
Heightened Def Con from 7.59824e-006 to 7.59826e-006
Heightened Def Con from 7.59826e-006 to 7.59826e-006
Heightened Def Con from 7.59826e-006 ++++to 7.59926e-006
Heightened Def Con from 7.59926e-006 ++++++++++to 7.59926e-006
Heightened Def Con from 7.59926e-006 +++to 7.59926e-006
Heightened Def Con from 7.59926e-006 +++to 7.59938e-006
Heightened Def Con from 7.59938e-006 ++to 7.59951e-006
Heightened Def Con from 7.59954e-006 to 7.59954e-006
Heightened Def Con from 7.59954e-006 +++to 7.59954e-006
Heightened Def Con from 7.59954e-006 to 7.59954e-006
Heightened Def Con from 7.59954e-006 ++++++++to 7.59954e-006
Heightened Def Con from 7.59954e-006 +to 7.59954e-006
Heightened Def Con from 7.59954e-006 +to 7.59954e-006
Heightened Def Con from 7.59954e-006 +to 7.59954e-006
Heightened Def Con from 7.59954e-006 ++++to 7.59956e-006
Heightened Def Con from 7.59956e-006 to 7.59956e-006
Heightened Def Con from 7.59956e-006 ++to 7.59956e-006
Heightened Def Con from 7.59956e-006 +to 7.59956e-006
Heightened Def Con from 7.59956e-006 +to 7.59956e-006
Heightened Def Con from 7.59956e-006 to 7.59956e-006
Heightened Def Con from 7.59956e-006 ++to 7.59958e-006
Heightened Def Con from 7.59958e-006 +++to 7.5997e-006
Heightened Def Con from 7.5997e-006 +to 7.5997e-006
Heightened Def Con from 7.5997e-006 +to 7.5997e-006
Heightened Def Con from 7.5997e-006 to 7.6007e-006
Heightened Def Con from 7.6007e-006 to 7.6007e-006
Heightened Def Con from 7.6007e-006 +to 7.6007e-006
Heightened Def Con from 7.6007e-006 +to 7.6007e-006
Heightened Def Con from 7.6007e-006 +++++to 7.6017e-006
Heightened Def Con from 7.6017e-006 +to 7.60172e-006
Heightened Def Con from 7.60172e-006 ++++to 7.60172e-006
Heightened Def Con from 7.60172e-006 +++++++++to 7.60172e-006
Heightened Def Con from 7.60172e-006 to 7.60272e-006
Heightened Def Con from 7.60272e-006 ++to 7.60273e-006
Heightened Def Con from 7.60273e-006 +to 7.60273e-006
Heightened Def Con from 7.60273e-006 ++to 7.60273e-006
Heightened Def Con from 7.60273e-006 ++to 7.60273e-006
Heightened Def Con from 7.60273e-006 ++++++++to 7.60285e-006
Heightened Def Con from 7.60285e-006 +++to 7.60287e-006
Heightened Def Con from 7.60287e-006 to 7.60287e-006
Heightened Def Con from 7.60287e-006 to 7.60301e-006
Heightened Def Con from 7.60301e-006 to 7.60301e-006
Heightened Def Con from 7.60301e-006 ++++to 7.60303e-006
Heightened Def Con from 7.60303e-006 +to 7.60303e-006
Heightened Def Con from 7.60303e-006 +++to 7.60303e-006
Heightened Def Con from 7.60303e-006 +++to 7.60303e-006
Heightened Def Con from 7.60303e-006 ++++to 7.60403e-006
Heightened Def Con from 7.60403e-006 ++to 7.60503e-006
Heightened Def Con from 7.60613e-006 +++to 7.60625e-006
Heightened Def Con from 7.60625e-006 +++to 7.60625e-006
Heightened Def Con from 7.60625e-006 to 7.60625e-006
Heightened Def Con from 7.60625e-006 +++to 7.60625e-006
Heightened Def Con from 7.60625e-006 +++++to 7.60625e-006
Heightened Def Con from 7.60625e-006 ++to 7.60625e-006
Heightened Def Con from 7.60625e-006 +++to 7.60626e-006
Heightened Def Con from 7.60626e-006 +++++to 7.60626e-006
Heightened Def Con from 7.60626e-006 +++++++++to 7.60626e-006
Heightened Def Con from 7.60626e-006 to 7.60638e-006
Heightened Def Con from 7.60638e-006 ++to 7.60738e-006
Heightened Def Con from 7.60738e-006 +to 7.60738e-006
Heightened Def Con from 7.60738e-006 +++to 7.6074e-006
Heightened Def Con from 7.6074e-006 +to 7.6074e-006
Heightened Def Con from 7.6074e-006 to 7.6074e-006
Heightened Def Con from 7.6074e-006 ++to 7.6084e-006
Heightened Def Con from 7.6084e-006 to 7.6094e-006
Heightened Def Con from 7.61052e-006 +++to 7.61052e-006
Heightened Def Con from 7.61052e-006 +to 7.61152e-006
Heightened Def Con from 7.61152e-006 to 7.61152e-006
Heightened Def Con from 7.61152e-006 to 7.61152e-006
Heightened Def Con from 7.61152e-006 ++to 7.61152e-006
Heightened Def Con from 7.61152e-006 +++++to 7.61165e-006
Heightened Def Con from 7.61168e-006 to 7.61168e-006
Heightened Def Con from 7.61168e-006 to 7.61168e-006
Heightened Def Con from 7.61168e-006 to 7.61168e-006
Heightened Def Con from 7.61168e-006 ++++to 7.61269e-006
Heightened Def Con from 7.61269e-006 ++++++to 7.61269e-006
Heightened Def Con from 7.61269e-006 ++++to 7.61269e-006
Heightened Def Con from 7.61269e-006 +++to 7.6127e-006
Heightened Def Con from 7.6127e-006 to 7.6127e-006
Heightened Def Con from 7.6127e-006 ++to 7.6127e-006
Heightened Def Con from 7.6127e-006 ++to 7.6127e-006
Heightened Def Con from 7.6127e-006 to 7.6127e-006
Heightened Def Con from 7.6127e-006 +to 7.61272e-006
Heightened Def Con from 7.61272e-006 +++to 7.61272e-006
Heightened Def Con from 7.61272e-006 ++++to 7.61272e-006
Heightened Def Con from 7.61272e-006 to 7.61272e-006
Heightened Def Con from 7.61272e-006 +to 7.61272e-006
Heightened Def Con from 7.61272e-006 +to 7.61285e-006
Heightened Def Con from 7.61285e-006 +++to 7.61285e-006
Heightened Def Con from 7.61285e-006 to 7.61285e-006
Heightened Def Con from 7.61285e-006 ++to 7.61385e-006
Heightened Def Con from 7.61385e-006 to 7.61385e-006
Heightened Def Con from 7.61385e-006 +to 7.61386e-006
Heightened Def Con from 7.61386e-006 ++++to 7.61386e-006
Heightened Def Con from 7.61386e-006 +++++++++to 7.61411e-006
Heightened Def Con from 7.61411e-006 +++++to 7.61424e-006
Heightened Def Con from 7.61424e-006 +++to 7.61424e-006
Heightened Def Con from 7.61424e-006 +++++to 7.61424e-006
Heightened Def Con from 7.61424e-006 +++to 7.61424e-006
Heightened Def Con from 7.61424e-006 to 7.61426e-006
Heightened Def Con from 7.61428e-006 to 7.61428e-006
Heightened Def Con from 7.61428e-006 +++to 7.61528e-006
Heightened Def Con from 7.61529e-006 +to 7.6153e-006
Heightened Def Con from 7.6153e-006 to 7.6153e-006
Heightened Def Con from 7.6153e-006 ++to 7.6153e-006
Heightened Def Con from 7.6153e-006 to 7.61531e-006
Heightened Def Con from 7.61531e-006 ++++++to 7.61531e-006
Heightened Def Con from 7.61531e-006 ++++to 7.61531e-006
Heightened Def Con from 7.61531e-006 ++to 7.61644e-006
Heightened Def Con from 7.61644e-006 to 7.61644e-006
Heightened Def Con from 7.61644e-006 +++++++to 7.61644e-006
Heightened Def Con from 7.61644e-006 +++++to 7.61644e-006
Heightened Def Con from 7.61644e-006 +++to 7.61644e-006
Heightened Def Con from 7.61644e-006 ++++++to 7.61644e-006
Heightened Def Con from 7.61644e-006 to 7.61744e-006
Heightened Def Con from 7.61744e-006 ++++++to 7.61746e-006
Heightened Def Con from 7.61746e-006 +++++to 7.61846e-006
Heightened Def Con from 7.61846e-006 ++to 7.61946e-006
Heightened Def Con from 7.61946e-006 ++to 7.61946e-006
Heightened Def Con from 7.61946e-006 +to 7.61948e-006
Heightened Def Con from 7.61948e-006 +++to 7.61948e-006
Heightened Def Con from 7.61948e-006 to 7.61948e-006
Heightened Def Con from 7.61948e-006 to 7.61948e-006
Heightened Def Con from 7.61948e-006 +to 7.61961e-006
Heightened Def Con from 7.61961e-006 +++++to 7.61962e-006
Heightened Def Con from 7.61962e-006 ++++to 7.61962e-006
Heightened Def Con from 7.61962e-006 ++to 7.61964e-006
Heightened Def Con from 7.61964e-006 to 7.61964e-006
Heightened Def Con from 7.61964e-006 ++to 7.61964e-006
Heightened Def Con from 7.61964e-006 +++to 7.61965e-006
Heightened Def Con from 7.61965e-006 +to 7.61966e-006
Heightened Def Con from 7.61966e-006 to 7.61966e-006
Heightened Def Con from 7.61966e-006 ++to 7.61966e-006
Heightened Def Con from 7.61966e-006 to 7.61966e-006
Heightened Def Con from 7.61966e-006 +++++to 7.61966e-006
Heightened Def Con from 7.61966e-006 to 7.61966e-006
Heightened Def Con from 7.61966e-006 to 7.61966e-006
Heightened Def Con from 7.61966e-006 +++++to 7.61966e-006
Heightened Def Con from 7.61966e-006 to 7.61966e-006
Heightened Def Con from 7.61966e-006 ++++++++to 7.61968e-006
Heightened Def Con from 7.61968e-006 ++++to 7.61969e-006
Heightened Def Con from 7.61969e-006 ++++++to 7.62169e-006
Heightened Def Con from 7.6217e-006 to 7.62171e-006
Heightened Def Con from 7.62171e-006 to 7.62171e-006
Heightened Def Con from 7.62171e-006 +++++to 7.62173e-006
Heightened Def Con from 7.62173e-006 ++++++to 7.62173e-006
Heightened Def Con from 7.62173e-006 +++++to 7.62185e-006
Heightened Def Con from 7.62185e-006 to 7.62185e-006
Heightened Def Con from 7.62185e-006 to 7.62186e-006
Heightened Def Con from 7.62186e-006 ++to 7.62186e-006
Heightened Def Con from 7.62186e-006 to 7.62186e-006
Heightened Def Con from 7.62186e-006 ++to 7.62186e-006
Heightened Def Con from 7.62186e-006 ++to 7.62199e-006
Heightened Def Con from 7.62199e-006 +++++to 7.62199e-006
Heightened Def Con from 7.62199e-006 ++++to 7.622e-006
Heightened Def Con from 7.622e-006 +++++++++to 7.62201e-006
Heightened Def Con from 7.62201e-006 to 7.62226e-006
Heightened Def Con from 7.62226e-006 to 7.62226e-006
Heightened Def Con from 7.62226e-006 +to 7.62226e-006
Heightened Def Con from 7.62226e-006 to 7.62226e-006
Heightened Def Con from 7.62226e-006 to 7.62226e-006
Heightened Def Con from 7.62226e-006 +++++++++to 7.62226e-006
Heightened Def Con from 7.62226e-006 +++to 7.62326e-006
Heightened Def Con from 7.62326e-006 to 7.62326e-006
Heightened Def Con from 7.62326e-006 ++to 7.62438e-006
Heightened Def Con from 7.62438e-006 +to 7.62438e-006
Heightened Def Con from 7.62438e-006 +to 7.62538e-006
Heightened Def Con from 7.62538e-006 to 7.62538e-006
Heightened Def Con from 7.62538e-006 +++++to 7.62538e-006
Heightened Def Con from 7.62538e-006 +to 7.62538e-006
Heightened Def Con from 7.62538e-006 +++++++++to 7.62539e-006
Heightened Def Con from 7.62539e-006 +++to 7.62539e-006
Heightened Def Con from 7.62539e-006 to 7.62552e-006
Heightened Def Con from 7.62552e-006 ++to 7.62552e-006
Heightened Def Con from 7.62552e-006 to 7.62552e-006
Heightened Def Con from 7.62552e-006 ++to 7.62552e-006
Heightened Def Con from 7.62552e-006 +to 7.62565e-006
Heightened Def Con from 7.62565e-006 ++to 7.62565e-006
Heightened Def Con from 7.62565e-006 ++++++to 7.62565e-006
Heightened Def Con from 7.62565e-006 +to 7.62565e-006
Heightened Def Con from 7.62565e-006 ++to 7.62565e-006
Heightened Def Con from 7.62565e-006 to 7.62565e-006
Heightened Def Con from 7.62565e-006 to 7.62578e-006
Heightened Def Con from 7.62578e-006 +++++++to 7.62578e-006
Heightened Def Con from 7.62578e-006 ++to 7.6259e-006
Heightened Def Con from 7.6259e-006 ++++++to 7.6259e-006
Heightened Def Con from 7.6259e-006 ++++++to 7.6269e-006
Heightened Def Con from 7.6269e-006 ++++++to 7.62692e-006
Heightened Def Con from 7.62692e-006 to 7.62692e-006
Heightened Def Con from 7.62692e-006 ++++to 7.62693e-006
Heightened Def Con from 7.62693e-006 ++to 7.62693e-006
Heightened Def Con from 7.62693e-006 ++to 7.62694e-006
Heightened Def Con from 7.62694e-006 to 7.62694e-006
Heightened Def Con from 7.62694e-006 ++to 7.62695e-006
Heightened Def Con from 7.62695e-006 ++to 7.62697e-006
Heightened Def Con from 7.62697e-006 to 7.62697e-006
Heightened Def Con from 7.62697e-006 to 7.62697e-006
Heightened Def Con from 7.62697e-006 to 7.62697e-006
Heightened Def Con from 7.62697e-006 to 7.627e-006
Heightened Def Con from 7.627e-006 to 7.62712e-006
Heightened Def Con from 7.62712e-006 to 7.62712e-006
Heightened Def Con from 7.62712e-006 +++++to 7.62712e-006
Heightened Def Con from 7.62712e-006 +to 7.62712e-006
Heightened Def Con from 7.62712e-006 +++to 7.62712e-006
Heightened Def Con from 7.62712e-006 ++to 7.62712e-006
Heightened Def Con from 7.62712e-006 to 7.62712e-006
Heightened Def Con from 7.62712e-006 ++to 7.62912e-006
Heightened Def Con from 7.63022e-006 +++++++to 7.63023e-006
Heightened Def Con from 7.63023e-006 ++++to 7.63023e-006
Heightened Def Con from 7.63023e-006 to 7.63023e-006
Heightened Def Con from 7.63023e-006 +to 7.63023e-006
Heightened Def Con from 7.63023e-006 to 7.63023e-006
Heightened Def Con from 7.63023e-006 +to 7.63123e-006
Heightened Def Con from 7.63123e-006 +to 7.63223e-006
Heightened Def Con from 7.63223e-006 to 7.63223e-006
Heightened Def Con from 7.63223e-006 +to 7.63323e-006
Heightened Def Con from 7.63323e-006 to 7.63323e-006
Heightened Def Con from 7.63323e-006 +to 7.63323e-006
Heightened Def Con from 7.63323e-006 +++to 7.63423e-006
Heightened Def Con from 7.63423e-006 to 7.63423e-006
Heightened Def Con from 7.63423e-006 ++to 7.63423e-006
Heightened Def Con from 7.63423e-006 to 7.63423e-006
Heightened Def Con from 7.63423e-006 +to 7.63423e-006
Heightened Def Con from 7.63423e-006 +to 7.63425e-006
Heightened Def Con from 7.63425e-006 to 7.63437e-006
Heightened Def Con from 7.63437e-006 ++to 7.63437e-006
Heightened Def Con from 7.63437e-006 ++to 7.63437e-006
Heightened Def Con from 7.63437e-006 ++++to 7.63437e-006
Heightened Def Con from 7.63437e-006 +to 7.63438e-006
Heightened Def Con from 7.63438e-006 to 7.63438e-006
Heightened Def Con from 7.63438e-006 +to 7.63439e-006
Heightened Def Con from 7.63439e-006 ++to 7.63439e-006
Heightened Def Con from 7.63439e-006 +to 7.63439e-006
Heightened Def Con from 7.63439e-006 ++to 7.63439e-006
Heightened Def Con from 7.63439e-006 ++to 7.63439e-006
Heightened Def Con from 7.63439e-006 ++++to 7.63439e-006
Heightened Def Con from 7.63439e-006 to 7.63439e-006
Heightened Def Con from 7.63439e-006 +++to 7.63439e-006
Heightened Def Con from 7.63439e-006 +to 7.63439e-006
Heightened Def Con from 7.63439e-006 +to 7.63441e-006
Heightened Def Con from 7.63441e-006 to 7.63441e-006
Heightened Def Con from 7.63441e-006 +to 7.63441e-006
Heightened Def Con from 7.63441e-006 to 7.63441e-006
Heightened Def Con from 7.63441e-006 to 7.63441e-006
Heightened Def Con from 7.63441e-006 to 7.63441e-006
Heightened Def Con from 7.63441e-006 +to 7.63442e-006
Heightened Def Con from 7.63442e-006 +to 7.63555e-006
Heightened Def Con from 7.63555e-006 +to 7.63555e-006
Heightened Def Con from 7.63555e-006 to 7.63568e-006
Heightened Def Con from 7.63568e-006 +to 7.63568e-006
Heightened Def Con from 7.63568e-006 ++to 7.6358e-006
Heightened Def Con from 7.6358e-006 to 7.63593e-006
Heightened Def Con from 7.63593e-006 +to 7.63594e-006
Heightened Def Con from 7.63597e-006 ++to 7.63599e-006
Heightened Def Con from 7.63599e-006 ++to 7.63611e-006
Heightened Def Con from 7.63611e-006 ++to 7.63611e-006
Heightened Def Con from 7.63611e-006 to 7.63612e-006
Heightened Def Con from 7.63612e-006 to 7.63612e-006
Heightened Def Con from 7.63612e-006 to 7.63612e-006
Heightened Def Con from 7.63612e-006 to 7.63613e-006
Heightened Def Con from 7.63614e-006 ++to 7.63615e-006
Heightened Def Con from 7.63616e-006 to 7.63616e-006
Heightened Def Con from 7.63616e-006 +to 7.63716e-006
Heightened Def Con from 7.63716e-006 ++to 7.63716e-006
Heightened Def Con from 7.63716e-006 +++to 7.63716e-006
Heightened Def Con from 7.63716e-006 +++to 7.63716e-006
Heightened Def Con from 7.63716e-006 +to 7.63717e-006
Heightened Def Con from 7.63717e-006 ++++++to 7.63717e-006
Heightened Def Con from 7.63717e-006 +to 7.63718e-006
Heightened Def Con from 7.63718e-006 +to 7.64018e-006
Heightened Def Con from 7.64218e-006 +to 7.64219e-006
Heightened Def Con from 7.64219e-006 +to 7.64221e-006
Heightened Def Con from 7.64221e-006 to 7.64221e-006
Heightened Def Con from 7.64221e-006 +to 7.64222e-006
Heightened Def Con from 7.64222e-006 +to 7.64222e-006
Heightened Def Con from 7.64222e-006 to 7.64322e-006
Heightened Def Con from 7.64322e-006 ++++++to 7.64335e-006
Heightened Def Con from 7.64335e-006 +++to 7.64349e-006
Heightened Def Con from 7.64352e-006 to 7.64354e-006
Heightened Def Con from 7.64354e-006 to 7.64354e-006
Heightened Def Con from 7.64354e-006 ++to 7.64554e-006
Heightened Def Con from 7.64554e-006 +to 7.64654e-006
Heightened Def Con from 7.64654e-006 +to 7.64654e-006
Heightened Def Con from 7.64655e-006 to 7.64855e-006
Heightened Def Con from 7.64855e-006 ++to 7.64956e-006
Heightened Def Con from 7.64956e-006 to 7.64956e-006
Heightened Def Con from 7.64956e-006 ++++++++to 7.64983e-006
Heightened Def Con from 7.64983e-006 +to 7.65095e-006
Heightened Def Con from 7.6517e-006 to 7.65283e-006
Heightened Def Con from 7.65283e-006 +to 7.65395e-006
Heightened Def Con from 7.65395e-006 ++++++to 7.65408e-006
Heightened Def Con from 7.65408e-006 ++++to 7.65409e-006
Heightened Def Con from 7.6541e-006 to 7.65424e-006
Heightened Def Con from 7.65427e-006 +++++++to 7.65627e-006
Heightened Def Con from 7.65627e-006 +to 7.65627e-006
Heightened Def Con from 7.65627e-006 to 7.65627e-006
Heightened Def Con from 7.65627e-006 ++++to 7.6564e-006
Heightened Def Con from 7.6564e-006 ++++++to 7.65641e-006
Heightened Def Con from 7.65641e-006 ++to 7.65654e-006
Heightened Def Con from 7.65654e-006 +to 7.65656e-006
Heightened Def Con from 7.65656e-006 ++to 7.65657e-006
Heightened Def Con from 7.65657e-006 +to 7.65657e-006
Heightened Def Con from 7.65657e-006 +to 7.65658e-006
Heightened Def Con from 7.65658e-006 to 7.65658e-006
Heightened Def Con from 7.65658e-006 +++to 7.65683e-006
Heightened Def Con from 7.65683e-006 +to 7.65683e-006
Heightened Def Con from 7.65683e-006 to 7.65683e-006
Heightened Def Con from 7.65683e-006 to 7.65695e-006
Heightened Def Con from 7.65695e-006 +++++++to 7.65821e-006
Heightened Def Con from 7.65821e-006 ++to 7.65822e-006
Heightened Def Con from 7.65822e-006 ++++to 7.65824e-006
Heightened Def Con from 7.65824e-006 ++to 7.65851e-006
Heightened Def Con from 7.65851e-006 ++++to 7.65851e-006
Heightened Def Con from 7.65851e-006 ++to 7.65953e-006
Heightened Def Con from 7.65953e-006 to 7.65954e-006
Heightened Def Con from 7.65954e-006 ++to 7.66056e-006
Heightened Def Con from 7.66056e-006 to 7.6607e-006
Heightened Def Con from 7.6607e-006 to 7.6607e-006
Heightened Def Con from 7.6607e-006 ++to 7.6607e-006
Heightened Def Con from 7.6607e-006 +++++++++to 7.66184e-006
Heightened Def Con from 7.66184e-006 +++++++to 7.66303e-006
Heightened Def Con from 7.66303e-006 +to 7.66315e-006
Heightened Def Con from 7.66315e-006 +to 7.66317e-006
Heightened Def Con from 7.66317e-006 +to 7.66317e-006
Heightened Def Con from 7.66317e-006 to 7.66331e-006
Heightened Def Con from 7.66331e-006 +to 7.66332e-006
Heightened Def Con from 7.66332e-006 ++to 7.66332e-006
Heightened Def Con from 7.66332e-006 +++to 7.66334e-006
Heightened Def Con from 7.66334e-006 +++++to 7.66348e-006
Heightened Def Con from 7.66348e-006 to 7.66348e-006
Heightened Def Con from 7.66348e-006 to 7.66448e-006
Heightened Def Con from 7.66448e-006 +++++to 7.6656e-006
Heightened Def Con from 7.6656e-006 to 7.66586e-006
Heightened Def Con from 7.66586e-006 +to 7.66587e-006
Heightened Def Con from 7.66587e-006 +to 7.666e-006
Heightened Def Con from 7.666e-006 to 7.66712e-006
Heightened Def Con from 7.66712e-006 +to 7.66712e-006
Heightened Def Con from 7.66712e-006 ++++++++to 7.66826e-006
Heightened Def Con from 7.66826e-006 +++to 7.6684e-006
Heightened Def Con from 7.6684e-006 to 7.66842e-006
Heightened Def Con from 7.66842e-006 to 7.66842e-006
Heightened Def Con from 7.66842e-006 +to 7.66855e-006
Heightened Def Con from 7.66855e-006 +++to 7.66855e-006
Heightened Def Con from 7.66855e-006 to 7.66858e-006
Heightened Def Con from 7.66858e-006 +to 7.6686e-006
Heightened Def Con from 7.6686e-006 +to 7.6686e-006
Heightened Def Con from 7.6686e-006 ++++++++++to 7.66997e-006
Heightened Def Con from 7.66997e-006 +to 7.67022e-006
Heightened Def Con from 7.67022e-006 +++++++to 7.67124e-006
Heightened Def Con from 7.67124e-006 to 7.67125e-006
Heightened Def Con from 7.67125e-006 to 7.67125e-006
Heightened Def Con from 7.67125e-006 ++++to 7.67139e-006
Heightened Def Con from 7.67139e-006 to 7.67139e-006
Heightened Def Con from 7.67139e-006 to 7.67241e-006
Heightened Def Con from 7.67241e-006 ++to 7.67241e-006
Heightened Def Con from 7.67241e-006 ++++++++++++to 7.67367e-006
Heightened Def Con from 7.67367e-006 +to 7.67369e-006
Heightened Def Con from 7.67369e-006 to 7.67369e-006
Heightened Def Con from 7.67369e-006 to 7.67369e-006
Heightened Def Con from 7.6737e-006 ++to 7.6747e-006
Heightened Def Con from 7.6747e-006 ++to 7.6747e-006
Heightened Def Con from 7.6747e-006 ++++++++to 7.67684e-006
Heightened Def Con from 7.67684e-006 ++to 7.67697e-006
Heightened Def Con from 7.67697e-006 ++++to 7.67909e-006
Heightened Def Con from 7.67909e-006 to 7.67909e-006
Heightened Def Con from 7.67909e-006 to 7.67913e-006
Heightened Def Con from 7.67913e-006 ++to 7.67938e-006
Heightened Def Con from 7.67939e-006 ++to 7.67952e-006
Heightened Def Con from 7.67952e-006 +to 7.67964e-006
Heightened Def Con from 7.67964e-006 to 7.67964e-006
Heightened Def Con from 7.67964e-006 ++to 7.68066e-006
Heightened Def Con from 7.68066e-006 +to 7.68178e-006
Heightened Def Con from 7.68178e-006 +++to 7.68191e-006
Heightened Def Con from 7.68191e-006 to 7.68191e-006
Heightened Def Con from 7.68191e-006 to 7.68203e-006
Heightened Def Con from 7.68203e-006 +to 7.68203e-006
Heightened Def Con from 7.68203e-006 +to 7.68217e-006
Heightened Def Con from 7.68217e-006 to 7.68319e-006
Heightened Def Con from 7.68319e-006 +to 7.68319e-006
Heightened Def Con from 7.68319e-006 ++++++to 7.68719e-006
Heightened Def Con from 7.68725e-006 ++++to 7.68737e-006
Heightened Def Con from 7.68738e-006 to 7.6875e-006
Heightened Def Con from 7.6875e-006 to 7.68763e-006
Heightened Def Con from 7.68763e-006 +to 7.68875e-006
Heightened Def Con from 7.68878e-006 +to 7.68891e-006
Heightened Def Con from 7.68891e-006 +to 7.69103e-006
Heightened Def Con from 7.69103e-006 +to 7.69303e-006
Heightened Def Con from 7.69303e-006 +++to 7.69303e-006
Heightened Def Con from 7.69303e-006 to 7.69303e-006
Heightened Def Con from 7.69303e-006 to 7.69416e-006
Heightened Def Con from 7.69416e-006 +++to 7.69416e-006
Heightened Def Con from 7.69416e-006 to 7.69441e-006
Heightened Def Con from 7.69442e-006 ++++++to 7.69654e-006
Heightened Def Con from 7.69654e-006 +to 7.69767e-006
Heightened Def Con from 7.69767e-006 +to 7.69767e-006
Heightened Def Con from 7.69767e-006 +to 7.69968e-006
Heightened Def Con from 7.69968e-006 +++to 7.70081e-006
Heightened Def Con from 7.70081e-006 ++to 7.70081e-006
Heightened Def Con from 7.70081e-006 to 7.70281e-006
Heightened Def Con from 7.70281e-006 +++to 7.70381e-006
Heightened Def Con from 7.70381e-006 to 7.70481e-006
Heightened Def Con from 7.70481e-006 +to 7.70481e-006
Heightened Def Con from 7.70481e-006 +++to 7.70494e-006
Heightened Def Con from 7.70494e-006 ++to 7.70506e-006
Heightened Def Con from 7.70506e-006 to 7.70506e-006
Heightened Def Con from 7.70506e-006 to 7.70506e-006
Heightened Def Con from 7.70506e-006 +to 7.70506e-006
Heightened Def Con from 7.70506e-006 ++++++to 7.70608e-006
Heightened Def Con from 7.70608e-006 ++to 7.7062e-006
Heightened Def Con from 7.7062e-006 to 7.7062e-006
Heightened Def Con from 7.7062e-006 to 7.70622e-006
Heightened Def Con from 7.70622e-006 ++to 7.70622e-006
Heightened Def Con from 7.70622e-006 +++to 7.70922e-006
Heightened Def Con from 7.72415e-006 ++to 7.72515e-006
Heightened Def Con from 7.72515e-006 to 7.72516e-006
Heightened Def Con from 7.72516e-006 ++to 7.72516e-006
Heightened Def Con from 7.72516e-006 ++++to 7.72516e-006
Heightened Def Con from 7.72516e-006 +to 7.72516e-006
Heightened Def Con from 7.72516e-006 +to 7.72516e-006
Heightened Def Con from 7.72516e-006 to 7.72516e-006
Heightened Def Con from 7.72516e-006 +to 7.72616e-006
Heightened Def Con from 7.72616e-006 to 7.72629e-006
Heightened Def Con from 7.72629e-006 to 7.72741e-006
Heightened Def Con from 7.72741e-006 to 7.72841e-006
Heightened Def Con from 7.72841e-006 +to 7.72942e-006
Heightened Def Con from 7.72942e-006 +to 7.72954e-006
Heightened Def Con from 7.72954e-006 +++to 7.72954e-006
Heightened Def Con from 7.72954e-006 +++to 7.72954e-006
Heightened Def Con from 7.72954e-006 +++++to 7.72954e-006
Heightened Def Con from 7.72954e-006 +to 7.72954e-006
Heightened Def Con from 7.72954e-006 to 7.73054e-006
Heightened Def Con from 7.73054e-006 to 7.73054e-006
Heightened Def Con from 7.73054e-006 +to 7.73054e-006
Heightened Def Con from 7.73054e-006 to 7.73067e-006
Heightened Def Con from 7.73067e-006 to 7.73167e-006
Heightened Def Con from 7.73167e-006 +++++++++to 7.73167e-006
Heightened Def Con from 7.73167e-006 ++to 7.73167e-006
Heightened Def Con from 7.73167e-006 to 7.73167e-006
Heightened Def Con from 7.73167e-006 to 7.73167e-006
Heightened Def Con from 7.73167e-006 ++to 7.73167e-006
Heightened Def Con from 7.73167e-006 to 7.73167e-006
Heightened Def Con from 7.73167e-006 to 7.73167e-006
Heightened Def Con from 7.73167e-006 ++to 7.73167e-006
Heightened Def Con from 7.73168e-006 +++++++to 7.73168e-006
Heightened Def Con from 7.73168e-006 +++to 7.73168e-006
Heightened Def Con from 7.73168e-006 +to 7.73169e-006
Heightened Def Con from 7.73169e-006 to 7.73169e-006
Heightened Def Con from 7.73169e-006 ++to 7.73169e-006
Heightened Def Con from 7.73169e-006 to 7.73169e-006
Heightened Def Con from 7.73169e-006 ++to 7.73169e-006
Heightened Def Con from 7.73169e-006 to 7.73169e-006
Heightened Def Con from 7.73169e-006 +++to 7.73269e-006
Heightened Def Con from 7.73269e-006 +to 7.73269e-006
Heightened Def Con from 7.7327e-006 +++++++to 7.7327e-006
Heightened Def Con from 7.7327e-006 to 7.7327e-006
Heightened Def Con from 7.7327e-006 to 7.7327e-006
Heightened Def Con from 7.7327e-006 +to 7.7327e-006
Heightened Def Con from 7.7327e-006 to 7.7327e-006
Heightened Def Con from 7.7327e-006 +++to 7.7327e-006
Heightened Def Con from 7.7327e-006 +++to 7.7327e-006
Heightened Def Con from 7.7327e-006 to 7.7327e-006
Heightened Def Con from 7.7327e-006 to 7.7327e-006
Heightened Def Con from 7.7327e-006 +to 7.7337e-006
Heightened Def Con from 7.7337e-006 +++to 7.7337e-006
Heightened Def Con from 7.7337e-006 +++to 7.7337e-006
Heightened Def Con from 7.7337e-006 +++to 7.7337e-006
Heightened Def Con from 7.7337e-006 +to 7.7347e-006
Heightened Def Con from 7.7347e-006 to 7.7357e-006
Heightened Def Con from 7.7357e-006 to 7.7357e-006
Heightened Def Con from 7.73571e-006 ++to 7.73671e-006
Heightened Def Con from 7.73671e-006 ++to 7.73671e-006
Heightened Def Con from 7.73671e-006 ++++to 7.73671e-006
Heightened Def Con from 7.73671e-006 +++to 7.73771e-006
Heightened Def Con from 7.73771e-006 +to 7.73771e-006
Heightened Def Con from 7.73771e-006 +to 7.73783e-006
Heightened Def Con from 7.73783e-006 to 7.73784e-006
Heightened Def Con from 7.73784e-006 to 7.73784e-006
Heightened Def Con from 7.73784e-006 +to 7.73784e-006
Heightened Def Con from 7.73784e-006 +++++to 7.73884e-006
Heightened Def Con from 7.73884e-006 +to 7.73884e-006
Heightened Def Con from 7.73884e-006 ++to 7.73984e-006
Heightened Def Con from 7.73984e-006 to 7.74084e-006
Heightened Def Con from 7.74194e-006 ++++++to 7.74194e-006
Heightened Def Con from 7.74194e-006 to 7.74195e-006
Heightened Def Con from 7.74195e-006 to 7.74196e-006
Heightened Def Con from 7.74196e-006 +++++to 7.74196e-006
Heightened Def Con from 7.74196e-006 +to 7.74296e-006
Heightened Def Con from 7.74296e-006 to 7.74308e-006
Heightened Def Con from 7.74308e-006 +to 7.74308e-006
Heightened Def Con from 7.74308e-006 ++++to 7.74308e-006
Heightened Def Con from 7.74308e-006 to 7.74308e-006
Heightened Def Con from 7.74308e-006 +to 7.74308e-006
Heightened Def Con from 7.74308e-006 to 7.74308e-006
Heightened Def Con from 7.74308e-006 +++++to 7.74309e-006
Heightened Def Con from 7.74309e-006 to 7.74309e-006
Heightened Def Con from 7.74309e-006 to 7.74309e-006
Heightened Def Con from 7.74309e-006 to 7.74321e-006
Heightened Def Con from 7.74321e-006 +to 7.74321e-006
Heightened Def Con from 7.74321e-006 to 7.74323e-006
Heightened Def Con from 7.74323e-006 ++to 7.74323e-006
Heightened Def Con from 7.74324e-006 ++++++to 7.74324e-006
Heightened Def Con from 7.74324e-006 ++++to 7.74424e-006
Heightened Def Con from 7.74424e-006 +to 7.74436e-006
Heightened Def Con from 7.74436e-006 ++to 7.74449e-006
Heightened Def Con from 7.74449e-006 to 7.74561e-006
Heightened Def Con from 7.74561e-006 +++++to 7.74561e-006
Heightened Def Con from 7.74561e-006 to 7.74661e-006
Heightened Def Con from 7.74661e-006 ++to 7.74662e-006
Heightened Def Con from 7.74662e-006 to 7.74762e-006
Heightened Def Con from 7.74762e-006 to 7.74763e-006
Heightened Def Con from 7.74763e-006 +to 7.74865e-006
Heightened Def Con from 7.74865e-006 to 7.74866e-006
Heightened Def Con from 7.74866e-006 +to 7.74866e-006
Heightened Def Con from 7.74866e-006 ++to 7.74866e-006
Heightened Def Con from 7.74866e-006 to 7.74866e-006
Heightened Def Con from 7.74866e-006 ++to 7.74866e-006
Heightened Def Con from 7.74866e-006 ++++++to 7.74966e-006
Heightened Def Con from 7.74966e-006 +to 7.75066e-006
Heightened Def Con from 7.75066e-006 ++to 7.75067e-006
Heightened Def Con from 7.75067e-006 +to 7.75168e-006
Heightened Def Con from 7.75168e-006 to 7.7517e-006
Heightened Def Con from 7.7517e-006 ++to 7.75182e-006
Heightened Def Con from 7.75182e-006 ++++to 7.75282e-006
Heightened Def Con from 7.75282e-006 ++++to 7.75282e-006
Heightened Def Con from 7.75282e-006 to 7.75282e-006
Heightened Def Con from 7.75282e-006 +to 7.75295e-006
Heightened Def Con from 7.75295e-006 +to 7.75395e-006
Heightened Def Con from 7.75395e-006 +++to 7.75396e-006
Heightened Def Con from 7.75396e-006 to 7.75396e-006
Heightened Def Con from 7.75396e-006 ++to 7.75409e-006
Heightened Def Con from 7.75409e-006 +to 7.7561e-006
Heightened Def Con from 7.7561e-006 ++to 7.75623e-006
Heightened Def Con from 7.75623e-006 ++++++++++to 7.75623e-006
Heightened Def Con from 7.75623e-006 ++++to 7.75723e-006
Heightened Def Con from 7.75723e-006 +++++to 7.75723e-006
Heightened Def Con from 7.75723e-006 to 7.75736e-006
Heightened Def Con from 7.75736e-006 +to 7.75736e-006
Heightened Def Con from 7.75736e-006 ++to 7.75736e-006
Heightened Def Con from 7.75736e-006 +++to 7.75736e-006
Heightened Def Con from 7.75736e-006 to 7.75736e-006
Heightened Def Con from 7.75736e-006 to 7.75736e-006
Heightened Def Con from 7.75736e-006 to 7.75736e-006
Heightened Def Con from 7.75736e-006 ++++to 7.75736e-006
Heightened Def Con from 7.75736e-006 +++to 7.75836e-006
Heightened Def Con from 7.75836e-006 ++to 7.75836e-006
Heightened Def Con from 7.75836e-006 ++++to 7.75836e-006
Heightened Def Con from 7.75836e-006 to 7.75836e-006
Heightened Def Con from 7.75836e-006 +++to 7.75836e-006
Heightened Def Con from 7.75836e-006 ++++to 7.75838e-006
Heightened Def Con from 7.75838e-006 ++to 7.75838e-006
Heightened Def Con from 7.75838e-006 +++to 7.75838e-006
Heightened Def Con from 7.75838e-006 +to 7.7585e-006
Heightened Def Con from 7.7585e-006 ++to 7.7595e-006
Heightened Def Con from 7.7595e-006 to 7.7595e-006
Heightened Def Con from 7.7595e-006 +++++++to 7.75951e-006
Heightened Def Con from 7.75951e-006 +++to 7.75952e-006
Heightened Def Con from 7.75952e-006 +to 7.75965e-006
Heightened Def Con from 7.75968e-006 to 7.75968e-006
Heightened Def Con from 7.75968e-006 to 7.7597e-006
Heightened Def Con from 7.7597e-006 +++to 7.75971e-006
Heightened Def Con from 7.75971e-006 +to 7.75971e-006
Heightened Def Con from 7.75971e-006 to 7.75971e-006
Heightened Def Con from 7.75971e-006 to 7.75972e-006
Heightened Def Con from 7.75972e-006 to 7.75972e-006
Heightened Def Con from 7.75972e-006 +to 7.76072e-006
Heightened Def Con from 7.76072e-006 to 7.76072e-006
Heightened Def Con from 7.76072e-006 to 7.76072e-006
Heightened Def Con from 7.76072e-006 ++to 7.76072e-006
Heightened Def Con from 7.76072e-006 +++++++++to 7.76072e-006
Heightened Def Con from 7.76072e-006 ++to 7.76084e-006
Heightened Def Con from 7.76084e-006 +to 7.76084e-006
Heightened Def Con from 7.76084e-006 ++++to 7.76084e-006
Heightened Def Con from 7.76084e-006 +to 7.76086e-006
Heightened Def Con from 7.76086e-006 ++to 7.76086e-006
Heightened Def Con from 7.76086e-006 +to 7.76086e-006
Heightened Def Con from 7.76086e-006 to 7.76086e-006
Heightened Def Con from 7.76086e-006 +to 7.76086e-006
Heightened Def Con from 7.76086e-006 +to 7.76099e-006
Heightened Def Con from 7.76099e-006 +++++++to 7.761e-006
Heightened Def Con from 7.761e-006 to 7.76113e-006
Heightened Def Con from 7.76113e-006 +to 7.76113e-006
Heightened Def Con from 7.76113e-006 to 7.76115e-006
Heightened Def Con from 7.76115e-006 ++to 7.76115e-006
Heightened Def Con from 7.76115e-006 +to 7.76115e-006
Heightened Def Con from 7.76115e-006 +++to 7.76127e-006
Heightened Def Con from 7.76127e-006 +to 7.76127e-006
Heightened Def Con from 7.76127e-006 +to 7.76127e-006
Heightened Def Con from 7.76127e-006 +to 7.76127e-006
Heightened Def Con from 7.76127e-006 to 7.76127e-006
Heightened Def Con from 7.76127e-006 +to 7.76127e-006
Heightened Def Con from 7.76127e-006 to 7.76127e-006
Heightened Def Con from 7.76127e-006 to 7.76128e-006
Heightened Def Con from 7.76128e-006 ++to 7.76128e-006
Heightened Def Con from 7.76128e-006 +to 7.76128e-006
Heightened Def Con from 7.76128e-006 +to 7.76128e-006
Heightened Def Con from 7.76128e-006 to 7.76128e-006
Heightened Def Con from 7.76128e-006 +to 7.7614e-006
Heightened Def Con from 7.7614e-006 to 7.7614e-006
Heightened Def Con from 7.7614e-006 +to 7.76142e-006
Heightened Def Con from 7.76142e-006 ++to 7.76143e-006
Heightened Def Con from 7.76143e-006 +to 7.76143e-006
Heightened Def Con from 7.76143e-006 +++++++++to 7.76243e-006
Heightened Def Con from 7.76243e-006 +to 7.76243e-006
Heightened Def Con from 7.76243e-006 ++++++to 7.76244e-006
Heightened Def Con from 7.76244e-006 +to 7.76244e-006
Heightened Def Con from 7.76244e-006 +to 7.76244e-006
Heightened Def Con from 7.76244e-006 ++to 7.76244e-006
Heightened Def Con from 7.76244e-006 +++to 7.76245e-006
Heightened Def Con from 7.76245e-006 to 7.76245e-006
Heightened Def Con from 7.76245e-006 ++to 7.76345e-006
Heightened Def Con from 7.76359e-006 to 7.76359e-006
Heightened Def Con from 7.76359e-006 to 7.76359e-006
Heightened Def Con from 7.76359e-006 ++to 7.76359e-006
Heightened Def Con from 7.76359e-006 ++to 7.76359e-006
Heightened Def Con from 7.76359e-006 ++++++to 7.76361e-006
Heightened Def Con from 7.76361e-006 +to 7.76361e-006
Heightened Def Con from 7.76361e-006 to 7.76361e-006
Heightened Def Con from 7.76361e-006 +to 7.76361e-006
Heightened Def Con from 7.76361e-006 ++to 7.76361e-006
Heightened Def Con from 7.76361e-006 +++to 7.76361e-006
Heightened Def Con from 7.76361e-006 +++to 7.76363e-006
Heightened Def Con from 7.76363e-006 +to 7.76363e-006
Heightened Def Con from 7.76363e-006 to 7.76363e-006
Heightened Def Con from 7.76363e-006 ++to 7.76363e-006
Heightened Def Con from 7.76363e-006 +to 7.76365e-006
Heightened Def Con from 7.76365e-006 to 7.76365e-006
Heightened Def Con from 7.76365e-006 to 7.76365e-006
Heightened Def Con from 7.76365e-006 +++++++++to 7.76465e-006
Heightened Def Con from 7.76465e-006 +to 7.76467e-006
Heightened Def Con from 7.76467e-006 to 7.76479e-006
Heightened Def Con from 7.76479e-006 ++to 7.76479e-006
Heightened Def Con from 7.76479e-006 ++++++to 7.76579e-006
Heightened Def Con from 7.76579e-006 ++++to 7.76679e-006
Heightened Def Con from 7.76679e-006 +to 7.76681e-006
Heightened Def Con from 7.76681e-006 +to 7.76681e-006
Heightened Def Con from 7.76681e-006 to 7.76781e-006
Heightened Def Con from 7.76781e-006 ++to 7.76781e-006
Heightened Def Con from 7.76781e-006 +++++++++to 7.76783e-006
Heightened Def Con from 7.76783e-006 to 7.76783e-006
Heightened Def Con from 7.76783e-006 +to 7.76783e-006
Heightened Def Con from 7.76783e-006 to 7.76783e-006
Heightened Def Con from 7.76783e-006 ++++to 7.76783e-006
Heightened Def Con from 7.76783e-006 +++to 7.76785e-006
Heightened Def Con from 7.76785e-006 ++++++to 7.76785e-006
Heightened Def Con from 7.76785e-006 +++++++++to 7.76785e-006
Heightened Def Con from 7.76785e-006 to 7.76785e-006
Heightened Def Con from 7.76785e-006 +++++++to 7.76785e-006
Heightened Def Con from 7.76785e-006 ++++++to 7.76885e-006
Heightened Def Con from 7.76885e-006 +to 7.76885e-006
Heightened Def Con from 7.76885e-006 to 7.76885e-006
Heightened Def Con from 7.76885e-006 +to 7.76885e-006
Heightened Def Con from 7.76885e-006 +++++++to 7.76885e-006
Heightened Def Con from 7.76885e-006 to 7.76885e-006
Heightened Def Con from 7.76885e-006 +to 7.76885e-006
Heightened Def Con from 7.76885e-006 +to 7.76886e-006
Heightened Def Con from 7.76886e-006 +++++to 7.76886e-006
Heightened Def Con from 7.76886e-006 +to 7.76886e-006
Heightened Def Con from 7.76886e-006 +to 7.76886e-006
Heightened Def Con from 7.76886e-006 to 7.76886e-006
Heightened Def Con from 7.76886e-006 +to 7.76999e-006
Heightened Def Con from 7.76999e-006 +to 7.76999e-006
Heightened Def Con from 7.76999e-006 +to 7.76999e-006
Heightened Def Con from 7.76999e-006 +++to 7.76999e-006
Heightened Def Con from 7.76999e-006 +to 7.76999e-006
Heightened Def Con from 7.76999e-006 to 7.76999e-006
Heightened Def Con from 7.76999e-006 ++to 7.76999e-006
Heightened Def Con from 7.76999e-006 +++to 7.76999e-006
Heightened Def Con from 7.76999e-006 to 7.77012e-006
Heightened Def Con from 7.77012e-006 ++to 7.77012e-006
Heightened Def Con from 7.77012e-006 +++++++++to 7.77112e-006
Heightened Def Con from 7.77126e-006 ++++to 7.77128e-006
Heightened Def Con from 7.77128e-006 +to 7.77228e-006
Heightened Def Con from 7.77228e-006 ++to 7.77328e-006
Heightened Def Con from 7.77328e-006 to 7.77428e-006
Heightened Def Con from 7.77428e-006 to 7.77428e-006
Heightened Def Con from 7.77428e-006 to 7.77428e-006
Heightened Def Con from 7.77428e-006 +to 7.77428e-006
Heightened Def Con from 7.77428e-006 ++++++to 7.77428e-006
Heightened Def Con from 7.77428e-006 ++++++to 7.77428e-006
Heightened Def Con from 7.77428e-006 +to 7.77441e-006
Heightened Def Con from 7.77441e-006 to 7.77441e-006
Heightened Def Con from 7.77441e-006 +to 7.77441e-006
Heightened Def Con from 7.77441e-006 to 7.77441e-006
Heightened Def Con from 7.77441e-006 to 7.77441e-006
Heightened Def Con from 7.77441e-006 +to 7.77441e-006
Heightened Def Con from 7.77441e-006 ++to 7.77441e-006
Heightened Def Con from 7.77441e-006 to 7.77441e-006
Heightened Def Con from 7.77441e-006 ++to 7.77441e-006
Heightened Def Con from 7.77441e-006 ++to 7.77453e-006
Heightened Def Con from 7.77453e-006 to 7.77466e-006
Heightened Def Con from 7.77469e-006 to 7.77469e-006
Heightened Def Con from 7.77469e-006 to 7.77569e-006
Heightened Def Con from 7.77569e-006 +to 7.77569e-006
Heightened Def Con from 7.77569e-006 to 7.77569e-006
Heightened Def Con from 7.77569e-006 +to 7.7757e-006
Heightened Def Con from 7.7757e-006 +to 7.7757e-006
Heightened Def Con from 7.7757e-006 +to 7.77583e-006
Heightened Def Con from 7.77583e-006 +to 7.77583e-006
Heightened Def Con from 7.77583e-006 to 7.77583e-006
Heightened Def Con from 7.77583e-006 ++++to 7.77596e-006
Heightened Def Con from 7.77596e-006 +++to 7.77596e-006
Heightened Def Con from 7.77596e-006 ++++to 7.77596e-006
Heightened Def Con from 7.77596e-006 +to 7.77608e-006
Heightened Def Con from 7.77608e-006 to 7.77608e-006
[...]
Heightened Def Con from 0.000851613 to 0.000851614
Heightened Def Con from 0.000851614 to 0.000851616
Heightened Def Con from 0.000851618 to 0.00085162
Heightened Def Con from 0.000851653 to 0.000851654
Heightened Def Con from 0.000851793 to 0.000851796
Heightened Def Con from 0.000851857 to 0.000851859
Heightened Def Con from 0.00085186 to 0.00085186
Heightened Def Con from 0.00085186 to 0.000851863
Heightened Def Con from 0.000851864 to 0.000851865
Heightened Def Con from 0.000852039 to 0.000852044
Heightened Def Con from 0.000852078 to 0.000852081
Heightened Def Con from 0.000852108 to 0.000852109
Heightened Def Con from 0.000852113 to 0.000852114
Heightened Def Con from 0.000852118 to 0.000852118
Heightened Def Con from 0.000852184 to 0.000852185
Heightened Def Con from 0.000852339 to 0.000852342
Heightened Def Con from 0.000852407 to 0.000852408
Heightened Def Con from 0.000852423 to 0.000852424
Heightened Def Con from 0.000852425 to 0.000852426
Heightened Def Con from 0.000852461 to 0.000852461
Heightened Def Con from 0.000852462 to 0.000852464
Heightened Def Con from 0.000852574 to 0.000852574
Heightened Def Con from 0.000852574 to 0.000852574
Heightened Def Con from 0.000852574 to 0.000852576
Heightened Def Con from 0.000852576 to 0.000852576
Heightened Def Con from 0.000852583 to 0.000852584
Heightened Def Con from 0.000852597 to 0.000852598
Heightened Def Con from 0.000852601 to 0.000852602
Heightened Def Con from 0.000852606 to 0.000852608
Heightened Def Con from 0.000852708 to 0.000852709
Heightened Def Con from 0.000852709 to 0.000852709
Heightened Def Con from 0.000852709 to 0.00085271
Heightened Def Con from 0.00085271 to 0.000852713
Heightened Def Con from 0.000852819 to 0.00085282
Heightened Def Con from 0.000852976 to 0.000852978
Heightened Def Con from 0.000853079 to 0.000853079
Heightened Def Con from 0.000853082 to 0.000853083
Heightened Def Con from 0.000853089 to 0.000853092
Heightened Def Con from 0.000853146 to 0.000853148
Heightened Def Con from 0.000853375 to 0.000853377
Heightened Def Con from 0.000853637 to 0.000853639
Heightened Def Con from 0.00085378 to 0.000853781
Heightened Def Con from 0.000853842 to 0.000853842
Heightened Def Con from 0.000853844 to 0.000853846
Heightened Def Con from 0.000853864 to 0.000853866
Heightened Def Con from 0.000854015 to 0.000854018
Heightened Def Con from 0.000854035 to 0.000854035
Heightened Def Con from 0.000854035 to 0.000854037
Heightened Def Con from 0.000854037 to 0.00085404
Heightened Def Con from 0.000854568 to 0.000854568
Heightened Def Con from 0.000854568 to 0.000854568
Heightened Def Con from 0.000854568 to 0.000854569
Heightened Def Con from 0.000854666 to 0.000854667
Heightened Def Con from 0.000854673 to 0.000854675
Heightened Def Con from 0.000854687 to 0.000854689
Heightened Def Con from 0.000854743 to 0.000854744
Heightened Def Con from 0.000854744 to 0.000854747
Heightened Def Con from 0.000854749 to 0.000854749
Heightened Def Con from 0.000854813 to 0.000854813
Heightened Def Con from 0.000854813 to 0.000854815
Heightened Def Con from 0.000854858 to 0.000854861
Heightened Def Con from 0.00085492 to 0.000854921
Heightened Def Con from 0.000854922 to 0.000854924
Heightened Def Con from 0.000855114 to 0.000855114
Heightened Def Con from 0.000855114 to 0.000855117
Heightened Def Con from 0.00085512 to 0.000855122
Heightened Def Con from 0.000855131 to 0.000855133
Heightened Def Con from 0.000855227 to 0.00085523
Heightened Def Con from 0.000855316 to 0.000855317
Heightened Def Con from 0.000855318 to 0.000855319
Heightened Def Con from 0.000855322 to 0.000855322
Heightened Def Con from 0.00085546 to 0.00085546
Heightened Def Con from 0.00085546 to 0.00085546
Heightened Def Con from 0.000855598 to 0.000855598
Heightened Def Con from 0.000855598 to 0.000855598
Heightened Def Con from 0.000855631 to 0.000855633
Heightened Def Con from 0.000855692 to 0.000855692
Heightened Def Con from 0.000855693 to 0.000855696
Heightened Def Con from 0.000855701 to 0.000855703
Heightened Def Con from 0.000855801 to 0.000855802
Heightened Def Con from 0.000855889 to 0.000855889
Heightened Def Con from 0.000855889 to 0.000855889
Heightened Def Con from 0.000855889 to 0.00085589
Heightened Def Con from 0.00085589 to 0.000855891
Heightened Def Con from 0.000855905 to 0.000855908
Heightened Def Con from 0.000855919 to 0.000855919
Heightened Def Con from 0.000856057 to 0.000856057
Heightened Def Con from 0.000856057 to 0.000856059
Heightened Def Con from 0.000856063 to 0.000856063
Heightened Def Con from 0.000856063 to 0.000856063
Heightened Def Con from 0.000856131 to 0.000856133
Heightened Def Con from 0.000856269 to 0.00085627
Heightened Def Con from 0.000856271 to 0.000856274
Heightened Def Con from 0.000856647 to 0.00085665
Heightened Def Con from 0.000856655 to 0.000856656
Heightened Def Con from 0.000856656 to 0.000856656
Heightened Def Con from 0.000856667 to 0.00085667
Heightened Def Con from 0.000856762 to 0.000856765
Heightened Def Con from 0.000857106 to 0.000857109
Heightened Def Con from 0.000857128 to 0.00085713
Heightened Def Con from 0.00085713 to 0.00085713
Heightened Def Con from 0.00085713 to 0.000857133
Heightened Def Con from 0.000857137 to 0.000857138
Heightened Def Con from 0.00085719 to 0.000857191
Heightened Def Con from 0.000857223 to 0.000857223
Heightened Def Con from 0.000857223 to 0.000857226
Heightened Def Con from 0.000857325 to 0.000857328
Heightened Def Con from 0.000857382 to 0.000857383
Heightened Def Con from 0.000857389 to 0.000857389
Heightened Def Con from 0.00085739 to 0.000857391
Heightened Def Con from 0.000857396 to 0.000857396
Heightened Def Con from 0.000857402 to 0.000857403
Heightened Def Con from 0.000857404 to 0.000857408
Heightened Def Con from 0.000857409 to 0.000857411
Heightened Def Con from 0.000857418 to 0.00085742
Heightened Def Con from 0.00085743 to 0.000857432
Heightened Def Con from 0.000857458 to 0.000857461
Heightened Def Con from 0.000857461 to 0.000857461
Heightened Def Con from 0.000857464 to 0.000857464
Heightened Def Con from 0.000857472 to 0.000857473
Heightened Def Con from 0.000857501 to 0.000857501
Heightened Def Con from 0.000857572 to 0.000857572
Heightened Def Con from 0.000857572 to 0.000857574
Heightened Def Con from 0.000857574 to 0.000857577
Heightened Def Con from 0.000857772 to 0.000857773
Heightened Def Con from 0.000857773 to 0.000857775
Heightened Def Con from 0.00085781 to 0.000857813
Heightened Def Con from 0.000857941 to 0.000857941
Heightened Def Con from 0.000857941 to 0.000857941
Heightened Def Con from 0.000857943 to 0.000857946
Heightened Def Con from 0.000857999 +to 0.000858001
Heightened Def Con from 0.000858097 to 0.000858097
Heightened Def Con from 0.000858158 to 0.00085816
Heightened Def Con from 0.000858169 to 0.000858172
Heightened Def Con from 0.000858219 to 0.000858221
Heightened Def Con from 0.000858222 to 0.000858224
Heightened Def Con from 0.000858428 to 0.000858429
Heightened Def Con from 0.000858429 to 0.00085843
Heightened Def Con from 0.00085843 to 0.000858431
Heightened Def Con from 0.000858458 to 0.000858459
Heightened Def Con from 0.000858739 to 0.000858739
Heightened Def Con from 0.000858739 to 0.000858739
Heightened Def Con from 0.000858753 to 0.000858756
Heightened Def Con from 0.000858914 to 0.000858917
Heightened Def Con from 0.00085915 to 0.000859151
Heightened Def Con from 0.000859153 to 0.000859153
Heightened Def Con from 0.000859153 to 0.000859155
Heightened Def Con from 0.000859156 to 0.000859157
Heightened Def Con from 0.000859157 to 0.000859159
Heightened Def Con from 0.000859167 to 0.00085917
Heightened Def Con from 0.000859225 to 0.000859226
Heightened Def Con from 0.000859227 to 0.000859228
Heightened Def Con from 0.000859475 to 0.000859475
Heightened Def Con from 0.000859475 to 0.000859477
Heightened Def Con from 0.000859478 to 0.000859479
Heightened Def Con from 0.000859479 to 0.000859479
Heightened Def Con from 0.000859562 to 0.000859563
Heightened Def Con from 0.000859709 to 0.00085971
Heightened Def Con from 0.000859712 to 0.000859715
Heightened Def Con from 0.000859717 to 0.000859719
Heightened Def Con from 0.000859728 to 0.00085973
Heightened Def Con from 0.000859731 to 0.000859732
Heightened Def Con from 0.000859752 to 0.000859753
Heightened Def Con from 0.000859761 to 0.000859763
Heightened Def Con from 0.000859878 to 0.000859879
Heightened Def Con from 0.00085988 to 0.000859883
Heightened Def Con from 0.000859887 to 0.00085989
Heightened Def Con from 0.000859936 to 0.000859936
Heightened Def Con from 0.000859936 to 0.000859936
Heightened Def Con from 0.000860095 to 0.000860096
Heightened Def Con from 0.000860161 to 0.000860161
Heightened Def Con from 0.000860339 to 0.000860341
Heightened Def Con from 0.000860355 to 0.000860358
Heightened Def Con from 0.000860412 to 0.000860412
Heightened Def Con from 0.000860412 to 0.000860415
Heightened Def Con from 0.000860506 to 0.000860508
Heightened Def Con from 0.000860532 to 0.000860534
Heightened Def Con from 0.000860542 to 0.000860542
Heightened Def Con from 0.0008606 to 0.000860603
Heightened Def Con from 0.000860624 to 0.000860624
Heightened Def Con from 0.000860624 to 0.000860627
Heightened Def Con from 0.000860628 to 0.000860631
Heightened Def Con from 0.000860642 to 0.000860643
Heightened Def Con from 0.000860767 to 0.000860768
Heightened Def Con from 0.000860772 to 0.000860772
Heightened Def Con from 0.000860829 to 0.000860829
Heightened Def Con from 0.000860829 to 0.000860832
Heightened Def Con from 0.000860877 to 0.000860878
Heightened Def Con from 0.000861096 to 0.000861099
Heightened Def Con from 0.000861142 to 0.000861144
Heightened Def Con from 0.000861514 to 0.000861515
Heightened Def Con from 0.000861721 to 0.000861723
Heightened Def Con from 0.000861726 to 0.000861728
Heightened Def Con from 0.000861729 to 0.00086173
Heightened Def Con from 0.000861732 to 0.000861732
Heightened Def Con from 0.000861733 to 0.000861735
Heightened Def Con from 0.000861748 to 0.000861748
Heightened Def Con from 0.00086175 to 0.000861752
Heightened Def Con from 0.000861857 to 0.000861857
Heightened Def Con from 0.000861857 to 0.000861859
Heightened Def Con from 0.000861986 to 0.000861986
Heightened Def Con from 0.000861987 to 0.000861988
Heightened Def Con from 0.000862009 to 0.000862009
Heightened Def Con from 0.00086201 to 0.000862013
Heightened Def Con from 0.000862017 to 0.000862017
Heightened Def Con from 0.000862023 to 0.000862026
Heightened Def Con from 0.000862029 to 0.000862032
Heightened Def Con from 0.000862032 to 0.000862035
Heightened Def Con from 0.000862036 to 0.000862036
Heightened Def Con from 0.00086204 to 0.000862043
Heightened Def Con from 0.000862073 to 0.000862073
Heightened Def Con from 0.000862279 to 0.000862281
Heightened Def Con from 0.000862282 to 0.000862284
Heightened Def Con from 0.000862312 to 0.000862312
Heightened Def Con from 0.000862521 to 0.000862521
Heightened Def Con from 0.000862523 to 0.000862523
Heightened Def Con from 0.000862523 to 0.000862525
Heightened Def Con from 0.000862585 to 0.000862588
Heightened Def Con from 0.000862751 to 0.000862753
Heightened Def Con from 0.000862756 to 0.000862757
Heightened Def Con from 0.000862765 to 0.00086277
Heightened Def Con from 0.000862994 to 0.000862996
Heightened Def Con from 0.000862997 to 0.000862999
Heightened Def Con from 0.000863074 to 0.000863076
Heightened Def Con from 0.00086308 to 0.000863082
Heightened Def Con from 0.000863128 to 0.00086313
Heightened Def Con from 0.000863274 to 0.000863276
Heightened Def Con from 0.000863277 to 0.000863279
Heightened Def Con from 0.000863285 to 0.000863286
Heightened Def Con from 0.000863443 to 0.000863444
Heightened Def Con from 0.000863517 to 0.000863519
Heightened Def Con from 0.000863519 to 0.000863521
Heightened Def Con from 0.000863577 to 0.000863577
Heightened Def Con from 0.000863578 to 0.00086358
Heightened Def Con from 0.000863582 to 0.000863584
Heightened Def Con from 0.000863905 to 0.000863905
Heightened Def Con from 0.000863957 to 0.000863957
Heightened Def Con from 0.000863957 to 0.000863959
Heightened Def Con from 0.000864045 to 0.000864046
Heightened Def Con from 0.000864491 to 0.000864493
Heightened Def Con from 0.000864501 to 0.000864503
Heightened Def Con from 0.000864516 to 0.000864516
Heightened Def Con from 0.000864572 to 0.000864573
Heightened Def Con from 0.000864606 to 0.000864608
Heightened Def Con from 0.000864621 to 0.000864622
Heightened Def Con from 0.000864622 to 0.000864622
Heightened Def Con from 0.000864626 to 0.000864628
Heightened Def Con from 0.000864628 to 0.00086463
Heightened Def Con from 0.000864636 to 0.000864637
Heightened Def Con from 0.000864648 to 0.000864648
Heightened Def Con from 0.000864658 to 0.000864659
Heightened Def Con from 0.000864843 to 0.000864844
Heightened Def Con from 0.000864879 to 0.000864881
Heightened Def Con from 0.000864953 to 0.000864954
Heightened Def Con from 0.000865066 to 0.000865068
Heightened Def Con from 0.000865427 to 0.000865428
Heightened Def Con from 0.000865429 to 0.00086543
Heightened Def Con from 0.00086543 to 0.00086543
Heightened Def Con from 0.00086547 to 0.000865472
Heightened Def Con from 0.000865481 to 0.000865483
Heightened Def Con from 0.000865522 to 0.000865524
Heightened Def Con from 0.00086554 to 0.000865542
Heightened Def Con from 0.000865638 to 0.000865639
Heightened Def Con from 0.000865725 to 0.000865727
Heightened Def Con from 0.000865795 to 0.000865797
Heightened Def Con from 0.000865797 to 0.000865798
Heightened Def Con from 0.000866105 to 0.000866106
Heightened Def Con from 0.000866112 to 0.000866113
Heightened Def Con from 0.000866223 to 0.000866224
Heightened Def Con from 0.000866226 to 0.000866228
Heightened Def Con from 0.000866648 to 0.00086665
Heightened Def Con from 0.00086671 to 0.000866712
Heightened Def Con from 0.000866718 to 0.000866718
Heightened Def Con from 0.000866718 to 0.000866719
Heightened Def Con from 0.000866719 to 0.00086672
Heightened Def Con from 0.00086672 to 0.00086672
Heightened Def Con from 0.000866731 to 0.000866733
Heightened Def Con from 0.000866799 to 0.000866801
Heightened Def Con from 0.000866815 to 0.000866815
Heightened Def Con from 0.000866838 to 0.000866839
Heightened Def Con from 0.000866839 to 0.000866839
Heightened Def Con from 0.000866921 to 0.000866921
Heightened Def Con from 0.000867221 to 0.000867222
Heightened Def Con from 0.000867347 to 0.000867349
Heightened Def Con from 0.000867355 to 0.000867356
Heightened Def Con from 0.000867356 to 0.000867356
Heightened Def Con from 0.000867356 to 0.000867358
Heightened Def Con from 0.000867361 to 0.000867363
Heightened Def Con from 0.000867363 to 0.000867365
Heightened Def Con from 0.000867373 to 0.000867374
Heightened Def Con from 0.000867374 to 0.000867375
Heightened Def Con from 0.000867381 to 0.000867382
Heightened Def Con from 0.000867382 to 0.000867384
Heightened Def Con from 0.000867385 to 0.000867386
Heightened Def Con from 0.000867393 to 0.000867393
Heightened Def Con from 0.000867423 to 0.000867424
Heightened Def Con from 0.000867763 to 0.000867765
Heightened Def Con from 0.00086777 to 0.00086777
Heightened Def Con from 0.000867772 to 0.000867772
Heightened Def Con from 0.000867772 to 0.000867773
Heightened Def Con from 0.000867778 to 0.00086778
Heightened Def Con from 0.000867781 to 0.000867783
Heightened Def Con from 0.000867953 to 0.000867953
Heightened Def Con from 0.000867953 to 0.000867953
Heightened Def Con from 0.000867953 to 0.000867956
Heightened Def Con from 0.000868091 to 0.000868093
Heightened Def Con from 0.000868113 to 0.000868115
Heightened Def Con from 0.000868116 to 0.000868119
Heightened Def Con from 0.000868127 to 0.000868127
Heightened Def Con from 0.000868127 to 0.000868128
Heightened Def Con from 0.000868129 to 0.000868133
Heightened Def Con from 0.000868134 to 0.000868135
Heightened Def Con from 0.000868135 to 0.000868136
Heightened Def Con from 0.000868614 to 0.000868616
Heightened Def Con from 0.000868909 to 0.000868911
Heightened Def Con from 0.000868912 to 0.000868913
Heightened Def Con from 0.00086936 to 0.00086936
Heightened Def Con from 0.000869364 to 0.000869365
Heightened Def Con from 0.000869371 to 0.000869371
Heightened Def Con from 0.000869375 to 0.000869376
Heightened Def Con from 0.000869557 to 0.000869559
Heightened Def Con from 0.00086956 to 0.00086956
Heightened Def Con from 0.000869561 to 0.000869561
Heightened Def Con from 0.000870765 to 0.000870767
Heightened Def Con from 0.000870839 to 0.000870841
Heightened Def Con from 0.000870849 to 0.000870851
Heightened Def Con from 0.00087099 to 0.000870992
Heightened Def Con from 0.000871135 to 0.000871136
Heightened Def Con from 0.000871137 to 0.000871139
Heightened Def Con from 0.000871145 to 0.000871147
Heightened Def Con from 0.000871239 to 0.000871241
Heightened Def Con from 0.000871243 to 0.000871243
Heightened Def Con from 0.000871244 to 0.000871246
Heightened Def Con from 0.000871247 to 0.000871249
Heightened Def Con from 0.000871271 to 0.000871273
Heightened Def Con from 0.000871283 to 0.000871285
Heightened Def Con from 0.000871288 to 0.000871289
Heightened Def Con from 0.000871289 to 0.00087129
Heightened Def Con from 0.000871293 to 0.000871295
Heightened Def Con from 0.000872735 to 0.000872737
Heightened Def Con from 0.000872737 to 0.000872737
Heightened Def Con from 0.00087274 to 0.000872744
Heightened Def Con from 0.000872749 to 0.00087275
Heightened Def Con from 0.000872752 to 0.000872756
Heightened Def Con from 0.000872757 to 0.000872757
Heightened Def Con from 0.000872816 to 0.000872816
Heightened Def Con from 0.000872817 to 0.000872819
Heightened Def Con from 0.000873292 to 0.000873294
Heightened Def Con from 0.000873296 to 0.000873298
Heightened Def Con from 0.000873299 to 0.0008733
Heightened Def Con from 0.0008733 to 0.0008733
Heightened Def Con from 0.000873318 to 0.000873318
Heightened Def Con from 0.000873383 to 0.000873385
Heightened Def Con from 0.000873483 to 0.000873486
Heightened Def Con from 0.000873492 to 0.000873495
Heightened Def Con from 0.000873504 to 0.000873506
Heightened Def Con from 0.000873516 to 0.000873516
Heightened Def Con from 0.000873516 to 0.000873517
Heightened Def Con from 0.000873551 to 0.000873553
Heightened Def Con from 0.000873625 to 0.000873627
Heightened Def Con from 0.000873629 to 0.000873631
Heightened Def Con from 0.000873631 to 0.000873633
Heightened Def Con from 0.000873636 to 0.000873638
Heightened Def Con from 0.000873651 to 0.000873653
Heightened Def Con from 0.000873656 to 0.000873658
Heightened Def Con from 0.000873822 to 0.000873824
Heightened Def Con from 0.00087442 to 0.000874423
Heightened Def Con from 0.000874884 to 0.000874886
Heightened Def Con from 0.000875725 to 0.000875727
Heightened Def Con from 0.000877354 to 0.000877356
Heightened Def Con from 0.000877375 to 0.000877377
Heightened Def Con from 0.000877521 to 0.000877523
Heightened Def Con from 0.000877529 to 0.00087753
Heightened Def Con from 0.000877533 to 0.000877535
Heightened Def Con from 0.000877535 to 0.000877537
Heightened Def Con from 0.000877542 to 0.000877542
Heightened Def Con from 0.000877542 to 0.000877542
Heightened Def Con from 0.000877542 to 0.000877543
Heightened Def Con from 0.000877708 to 0.000877709
Heightened Def Con from 0.000878115 to 0.000878115
Heightened Def Con from 0.000878115 to 0.000878116
Heightened Def Con from 0.000878116 to 0.000878116
Heightened Def Con from 0.000878121 to 0.000878122
Heightened Def Con from 0.00087814 to 0.000878141
Heightened Def Con from 0.000878181 to 0.000878183
Heightened Def Con from 0.000878301 to 0.000878303
Heightened Def Con from 0.000878303 to 0.000878305
Heightened Def Con from 0.000878844 to 0.000878844
Heightened Def Con from 0.000878856 to 0.000878857
Heightened Def Con from 0.00087886 to 0.000878862
Heightened Def Con from 0.000878862 to 0.000878862
Heightened Def Con from 0.000879052 to 0.000879054
Heightened Def Con from 0.000881611 to 0.000881611
Height