Circuit: * D:\GitHub\LASDAC\ltspice\lasdac.asc

WARNING: Node N018 is floating.

WARNING: Less than two connections to node NC_01.  This node is used by L2.
Per .tran options, skipping operating point for transient analysis.
Ignoring empty pin current: Ix(u11:fb)
Ignoring empty pin current: Ix(u12:fb)
Changing Tseed to 1.46484e-009
Changing Tseed to 1.46484e-011
Changing Tseed to 1.46484e-008
Changing Tseed to 1.46484e-012
Changing Tseed to 1.46484e-007
Changing Tseed to 1.46484e-013
Changing Tseed to 1.46484e-006
Changing Tseed to 1.46484e-014
Changing Tseed to 1.46484e-005
Changing Tseed to 1.46484e-015
Changing Tseed to 0.000146484
Changing Tseed to 1.46484e-016
Heightened Def Con from 0 Changing Tseed to 1e-009
Changing Tseed to 1e-011
Changing Tseed to 1e-008
Changing Tseed to 1e-012
Changing Tseed to 1e-007
Changing Tseed to 1e-013
Changing Tseed to 1e-006
Changing Tseed to 1e-014
Changing Tseed to 1e-005
Changing Tseed to 1e-015
Changing Tseed to 0.0001
Changing Tseed to 1e-016
+Changing Tseed to 1e-009
Changing Tseed to 1e-011
Changing Tseed to 1e-008
Changing Tseed to 1e-012
Changing Tseed to 1e-007
Changing Tseed to 1e-013
Changing Tseed to 1e-006
Changing Tseed to 1e-014
Changing Tseed to 1e-005
Changing Tseed to 1e-015
Changing Tseed to 0.0001
Changing Tseed to 1e-016
+Changing Tseed to 1e-009
Changing Tseed to 1e-011
Changing Tseed to 1e-008
Changing Tseed to 1e-012
Changing Tseed to 1e-007
Changing Tseed to 1e-013
Changing Tseed to 1e-006
Changing Tseed to 1e-014
Changing Tseed to 1e-005
Changing Tseed to 1e-015
Changing Tseed to 0.0001
Changing Tseed to 1e-016
+Changing Tseed to 1e-009
Changing Tseed to 1e-011
Changing Tseed to 1e-008
Changing Tseed to 1e-012
Changing Tseed to 1e-007
Changing Tseed to 1e-013
Changing Tseed to 1e-006
Changing Tseed to 1e-014
Changing Tseed to 1e-005
Changing Tseed to 1e-015
Changing Tseed to 0.0001
Changing Tseed to 1e-016
+Changing Tseed to 1e-009
Changing Tseed to 1e-011
Changing Tseed to 1e-008
Changing Tseed to 1e-012
Changing Tseed to 1e-007
Changing Tseed to 1e-013
Changing Tseed to 1e-006
Changing Tseed to 1e-014
Changing Tseed to 1e-005
Changing Tseed to 1e-015
Changing Tseed to 0.0001
Changing Tseed to 1e-016
+Changing Tseed to 1e-009
Changing Tseed to 1e-011
Changing Tseed to 1e-008
Changing Tseed to 1e-012
Changing Tseed to 1e-007
Changing Tseed to 1e-013
Changing Tseed to 1e-006
Changing Tseed to 1e-014
Changing Tseed to 1e-005
Changing Tseed to 1e-015
Changing Tseed to 0.0001
Changing Tseed to 1e-016
+Changing Tseed to 1e-009
Changing Tseed to 1e-011
Changing Tseed to 1e-008
Changing Tseed to 1e-012
Changing Tseed to 1e-007
Changing Tseed to 1e-013
Changing Tseed to 1e-006
Changing Tseed to 1e-014
Changing Tseed to 1e-005
Changing Tseed to 1e-015
Changing Tseed to 0.0001
Changing Tseed to 1e-016
+Changing Tseed to 1e-009
Changing Tseed to 1e-011
Changing Tseed to 1e-008
Changing Tseed to 1e-012
Changing Tseed to 1e-007
Changing Tseed to 1e-013
Changing Tseed to 1e-006
Changing Tseed to 1e-014
Changing Tseed to 1e-005
Changing Tseed to 1e-015
Changing Tseed to 0.0001
Changing Tseed to 1e-016
+Changing Tseed to 1e-009
Changing Tseed to 1e-011
Changing Tseed to 1e-008
Changing Tseed to 1e-012
Changing Tseed to 1e-007
Changing Tseed to 1e-013
Changing Tseed to 1e-006
Changing Tseed to 1e-014
Changing Tseed to 1e-005
Changing Tseed to 1e-015
Changing Tseed to 0.0001
Changing Tseed to 1e-016
+Changing Tseed to 1e-009
Changing Tseed to 1e-011
Changing Tseed to 1e-008
Changing Tseed to 1e-012
Changing Tseed to 1e-007
Changing Tseed to 1e-013
Changing Tseed to 1e-006
Changing Tseed to 1e-014
Changing Tseed to 1e-005
Changing Tseed to 1e-015
Changing Tseed to 0.0001
Changing Tseed to 1e-016
+Changing Tseed to 1e-009
Changing Tseed to 1e-011
Changing Tseed to 1e-008
Changing Tseed to 1e-012
Changing Tseed to 1e-007
Changing Tseed to 1e-013
Changing Tseed to 1e-006
Changing Tseed to 1e-014
Changing Tseed to 1e-005
Changing Tseed to 1e-015
Changing Tseed to 0.0001
Changing Tseed to 1e-016
+Changing Tseed to 1e-009
Changing Tseed to 1e-011
Changing Tseed to 1e-008
Changing Tseed to 1e-012
Changing Tseed to 1e-007
Changing Tseed to 1e-013
Changing Tseed to 1e-006
Changing Tseed to 1e-014
Changing Tseed to 1e-005
Changing Tseed to 1e-015
Changing Tseed to 0.0001
Changing Tseed to 1e-016
+Changing Tseed to 1e-009
Changing Tseed to 1e-011
Changing Tseed to 1e-008
Changing Tseed to 1e-012
Changing Tseed to 1e-007
Changing Tseed to 1e-013
Changing Tseed to 1e-006
Changing Tseed to 1e-014
Changing Tseed to 1e-005
Changing Tseed to 1e-015
Changing Tseed to 0.0001
Changing Tseed to 1e-016
+Changing Tseed to 1e-009
Changing Tseed to 1e-011
Changing Tseed to 1e-008
Changing Tseed to 1e-012
Changing Tseed to 1e-007
Changing Tseed to 1e-013
Changing Tseed to 1e-006
Changing Tseed to 1e-014
Changing Tseed to 1e-005
Changing Tseed to 1e-015
Changing Tseed to 0.0001
Changing Tseed to 1e-016
+Changing Tseed to 1e-009
Changing Tseed to 1e-011
Changing Tseed to 1e-008
Changing Tseed to 1e-012
Changing Tseed to 1e-007
Changing Tseed to 1e-013
Changing Tseed to 1e-006
Changing Tseed to 1e-014
Changing Tseed to 1e-005
Changing Tseed to 1e-015
Changing Tseed to 0.0001
Changing Tseed to 1e-016
+Changing Tseed to 1e-009
Changing Tseed to 1e-011
Changing Tseed to 1e-008
Changing Tseed to 1e-012
Changing Tseed to 1e-007
Changing Tseed to 1e-013
Changing Tseed to 1e-006
Changing Tseed to 1e-014
Changing Tseed to 1e-005
Changing Tseed to 1e-015
Changing Tseed to 0.0001
Changing Tseed to 1e-016
+Changing Tseed to 1e-009
Changing Tseed to 1e-011
Changing Tseed to 1e-008
Changing Tseed to 1e-012
Changing Tseed to 1e-007
Changing Tseed to 1e-013
Changing Tseed to 1e-006
Changing Tseed to 1e-014
Changing Tseed to 1e-005
Changing Tseed to 1e-015
Changing Tseed to 0.0001
Changing Tseed to 1e-016
+Changing Tseed to 1e-009
Changing Tseed to 1e-011
Changing Tseed to 1e-008
Changing Tseed to 1e-012
Changing Tseed to 1e-007
Changing Tseed to 1e-013
Changing Tseed to 1e-006
Changing Tseed to 1e-014
Changing Tseed to 1e-005
Changing Tseed to 1e-015
Changing Tseed to 0.0001
Changing Tseed to 1e-016
+Changing Tseed to 1e-009
Changing Tseed to 1e-011
Changing Tseed to 1e-008
Changing Tseed to 1e-012
Changing Tseed to 1e-007
Changing Tseed to 1e-013
Changing Tseed to 1e-006
Changing Tseed to 1e-014
Changing Tseed to 1e-005
Changing Tseed to 1e-015
Changing Tseed to 0.0001
Changing Tseed to 1e-016
+Changing Tseed to 1e-009
Changing Tseed to 1e-011
Changing Tseed to 1e-008
Changing Tseed to 1e-012
Changing Tseed to 1e-007
Changing Tseed to 1e-013
Changing Tseed to 1e-006
Changing Tseed to 1e-014
Changing Tseed to 1e-005
Changing Tseed to 1e-015
Changing Tseed to 0.0001
Changing Tseed to 1e-016
+Changing Tseed to 1e-009
Changing Tseed to 1e-011
Changing Tseed to 1e-008
Changing Tseed to 1e-012
Changing Tseed to 1e-007
Changing Tseed to 1e-013
Changing Tseed to 1e-006
Changing Tseed to 1e-014
Changing Tseed to 1e-005
Changing Tseed to 1e-015
Changing Tseed to 0.0001
Changing Tseed to 1e-016
+Changing Tseed to 1e-009
Changing Tseed to 1e-011
Changing Tseed to 1e-008
Changing Tseed to 1e-012
Changing Tseed to 1e-007
Changing Tseed to 1e-013
Changing Tseed to 1e-006
Changing Tseed to 1e-014
Changing Tseed to 1e-005
Changing Tseed to 1e-015
Changing Tseed to 0.0001
Changing Tseed to 1e-016
+Changing Tseed to 1e-009
Changing Tseed to 1e-011
Changing Tseed to 1e-008
Changing Tseed to 1e-012
Changing Tseed to 1e-007
Changing Tseed to 1e-013
Changing Tseed to 1e-006
Changing Tseed to 1e-014
Changing Tseed to 1e-005
Changing Tseed to 1e-015
Changing Tseed to 0.0001
Changing Tseed to 1e-016
+Changing Tseed to 1e-009
Changing Tseed to 1e-011
Changing Tseed to 1e-008
Changing Tseed to 1e-012
Changing Tseed to 1e-007
Changing Tseed to 1e-013
Changing Tseed to 1e-006
Changing Tseed to 1e-014
Changing Tseed to 1e-005
Changing Tseed to 1e-015
Changing Tseed to 0.0001
Changing Tseed to 1e-016
+Changing Tseed to 1e-009
Changing Tseed to 1e-011
Changing Tseed to 1e-008
Changing Tseed to 1e-012
Changing Tseed to 1e-007
Changing Tseed to 1e-013
Changing Tseed to 1e-006
Changing Tseed to 1e-014
Changing Tseed to 1e-005
Changing Tseed to 1e-015
Changing Tseed to 0.0001
Changing Tseed to 1e-016
+Changing Tseed to 1e-009
Changing Tseed to 1e-011
Changing Tseed to 1e-008
Changing Tseed to 1e-012
Changing Tseed to 1e-007
Changing Tseed to 1e-013
Changing Tseed to 1e-006
Changing Tseed to 1e-014
Changing Tseed to 1e-005
Changing Tseed to 1e-015
Changing Tseed to 0.0001
Changing Tseed to 1e-016
+Changing Tseed to 1e-009
Changing Tseed to 1e-011
Changing Tseed to 1e-008
Changing Tseed to 1e-012
Changing Tseed to 1e-007
Changing Tseed to 1e-013
Changing Tseed to 1e-006
to 1.125e-006
Heightened Def Con from 1.12525e-006 to 1.13025e-006
Heightened Def Con from 1.23343e-006 to 1.23643e-006
Heightened Def Con from 1.62043e-005 to 1.62073e-005
Heightened Def Con from 1.62211e-005 to 1.62252e-005
Heightened Def Con from 1.62252e-005 to 1.62255e-005
Heightened Def Con from 1.96932e-005 to 1.96962e-005
Heightened Def Con from 1.98518e-005 to 1.98579e-005
Heightened Def Con from 2.01244e-005 to 2.01274e-005
Heightened Def Con from 2.04884e-005 to 2.04925e-005
Heightened Def Con from 2.04926e-005 to 2.04937e-005
Heightened Def Con from 2.43608e-005 to 2.43629e-005
Heightened Def Con from 2.43629e-005 to 2.4363e-005
Heightened Def Con from 2.49796e-005 to 2.49846e-005
Heightened Def Con from 2.49986e-005 to 2.49997e-005
Heightened Def Con from 2.88746e-005 to 2.8875e-005
Heightened Def Con from 2.94931e-005 to 2.94971e-005
Heightened Def Con from 2.95076e-005 to 2.95107e-005
Heightened Def Con from 2.95115e-005 to 2.95117e-005
Heightened Def Con from 2.95118e-005 to 2.95158e-005
Heightened Def Con from 3.33935e-005 to 3.33967e-005
Heightened Def Con from 3.33967e-005 to 3.3397e-005
Heightened Def Con from 3.3397e-005 to 3.33973e-005
Heightened Def Con from 3.34063e-005 to 3.34093e-005
Heightened Def Con from 3.38454e-005 to 3.38484e-005
Heightened Def Con from 3.4035e-005 to 3.4038e-005
Heightened Def Con from 3.79131e-005 to 3.79161e-005
Heightened Def Con from 3.79197e-005 to 3.7921e-005
Heightened Def Con from 3.85367e-005 to 3.85407e-005
Heightened Def Con from 3.85417e-005 to 3.85438e-005
Heightened Def Con from 3.8555e-005 to 3.8555e-005
Heightened Def Con from 4.18585e-005 to 4.18615e-005
Heightened Def Con from 4.28895e-005 to 4.28925e-005
Heightened Def Con from 4.30692e-005 to 4.30733e-005
Heightened Def Con from 4.30737e-005 to 4.30739e-005
Heightened Def Con from 4.69476e-005 to 4.69496e-005
Heightened Def Con from 4.7565e-005 to 4.7568e-005
Heightened Def Con from 4.75778e-005 to 4.75809e-005
Heightened Def Con from 4.75817e-005 to 4.75828e-005
Heightened Def Con from 5.04865e-005 to 5.04895e-005
Heightened Def Con from 5.14452e-005 to 5.14465e-005
Heightened Def Con from 5.14576e-005 to 5.14606e-005
Heightened Def Con from 5.20595e-005 to 5.20635e-005
Heightened Def Con from 5.20642e-005 to 5.20692e-005
Heightened Def Con from 5.48036e-005 to 5.48056e-005
Heightened Def Con from 5.48056e-005 to 5.48106e-005
Heightened Def Con from 5.57778e-005 to 5.57798e-005
Heightened Def Con from 5.57812e-005 to 5.57812e-005
Heightened Def Con from 5.57812e-005 to 5.57942e-005
Heightened Def Con from 5.64054e-005 to 5.64094e-005
Heightened Def Con from 5.64136e-005 to 5.64166e-005
Heightened Def Con from 5.64178e-005 to 5.6423e-005
Heightened Def Con from 5.6423e-005 to 5.64241e-005
Heightened Def Con from 5.96263e-005 to 5.96293e-005
Heightened Def Con from 5.96329e-005 to 5.96329e-005
Heightened Def Con from 5.96335e-005 to 5.96355e-005
Heightened Def Con from 5.96355e-005 to 5.96486e-005
Heightened Def Con from 6.02888e-005 to 6.02928e-005
Heightened Def Con from 6.02931e-005 to 6.02981e-005
Heightened Def Con from 6.03036e-005 to 6.03039e-005
Heightened Def Con from 6.03065e-005 to 6.03069e-005
Heightened Def Con from 6.03093e-005 to 6.03114e-005
Heightened Def Con from 6.03143e-005 to 6.03154e-005
Heightened Def Con from 6.26068e-005 to 6.26088e-005
Heightened Def Con from 6.26088e-005 to 6.2611e-005
Heightened Def Con from 6.26112e-005 to 6.26242e-005
Heightened Def Con from 6.32595e-005 to 6.32625e-005
Heightened Def Con from 6.33293e-005 to 6.33333e-005
Heightened Def Con from 6.33435e-005 ++to 6.33446e-005
Heightened Def Con from 6.33464e-005 to 6.33474e-005
Heightened Def Con from 6.33488e-005 to 6.33518e-005
Heightened Def Con from 6.33568e-005 to 6.33598e-005
Heightened Def Con from 6.48803e-005 to 6.48833e-005
Heightened Def Con from 6.48871e-005 to 6.48884e-005
Heightened Def Con from 6.48884e-005 +to 6.48888e-005
Heightened Def Con from 6.48904e-005 to 6.48908e-005
Heightened Def Con from 6.48994e-005 to 6.49024e-005
Heightened Def Con from 6.5717e-005 to 6.5719e-005
Heightened Def Con from 6.5722e-005 to 6.5725e-005
Heightened Def Con from 6.57341e-005 to 6.57342e-005
Heightened Def Con from 6.57342e-005 to 6.57402e-005
Heightened Def Con from 6.57402e-005 to 6.57406e-005
Heightened Def Con from 6.57488e-005 to 6.57491e-005
Heightened Def Con from 6.68426e-005 to 6.68456e-005
Heightened Def Con from 6.68502e-005 to 6.68513e-005
Heightened Def Con from 6.68514e-005 +to 6.68576e-005
Heightened Def Con from 6.68581e-005 to 6.68671e-005
Heightened Def Con from 6.68672e-005 to 6.68693e-005
Heightened Def Con from 6.76965e-005 to 6.76995e-005
Heightened Def Con from 6.77423e-005 to 6.77473e-005
Heightened Def Con from 6.78628e-005 to 6.78668e-005
Heightened Def Con from 6.78687e-005 to 6.78727e-005
Heightened Def Con from 6.78769e-005 to 6.7882e-005
Heightened Def Con from 6.78821e-005 to 6.78851e-005
Heightened Def Con from 6.87384e-005 to 6.87396e-005
Heightened Def Con from 6.87396e-005 to 6.87408e-005
Heightened Def Con from 6.87421e-005 to 6.87531e-005
Heightened Def Con from 7.00202e-005 to 7.00232e-005
Heightened Def Con from 7.0031e-005 to 7.004e-005
Heightened Def Con from 7.0729e-005 to 7.0732e-005
Heightened Def Con from 7.07377e-005 to 7.07407e-005
Heightened Def Con from 7.07407e-005 to 7.07547e-005
Heightened Def Con from 7.14685e-005 to 7.14715e-005
Heightened Def Con from 7.23e-005 to 7.2303e-005
Heightened Def Con from 7.23125e-005 to 7.23176e-005
Heightened Def Con from 7.29282e-005 to 7.29302e-005
Heightened Def Con from 7.29329e-005 to 7.29359e-005
Heightened Def Con from 7.29387e-005 to 7.29387e-005
Heightened Def Con from 7.29387e-005 to 7.29387e-005
Heightened Def Con from 7.29387e-005 +++to 7.29387e-005
Heightened Def Con from 7.29387e-005 to 7.29387e-005
Heightened Def Con from 7.29387e-005 to 7.29387e-005
Heightened Def Con from 7.29387e-005 to 7.29387e-005
Heightened Def Con from 7.29387e-005 to 7.29408e-005
Heightened Def Con from 7.29408e-005 to 7.29568e-005
Heightened Def Con from 7.47705e-005 to 7.47735e-005
Heightened Def Con from 7.47742e-005 to 7.47772e-005
Heightened Def Con from 7.47811e-005 to 7.47811e-005
Heightened Def Con from 7.47811e-005 to 7.47811e-005
Heightened Def Con from 7.47847e-005 to 7.47857e-005
Heightened Def Con from 7.47857e-005 to 7.47867e-005
Heightened Def Con from 7.47868e-005 to 7.47908e-005
Heightened Def Con from 7.47998e-005 to 7.48028e-005
Heightened Def Con from 7.53821e-005 to 7.53851e-005
Heightened Def Con from 7.53882e-005 to 7.53913e-005
Heightened Def Con from 7.53964e-005 to 7.54025e-005
Heightened Def Con from 7.54048e-005 to 7.54078e-005
Heightened Def Con from 7.62232e-005 to 7.62262e-005
Heightened Def Con from 7.63884e-005 to 7.63924e-005
Heightened Def Con from 7.73389e-005 to 7.73429e-005
Heightened Def Con from 7.7354e-005 to 7.7356e-005
Heightened Def Con from 7.7356e-005 to 7.7356e-005
Heightened Def Con from 7.73562e-005 to 7.73572e-005
Heightened Def Con from 7.73572e-005 to 7.73572e-005
Heightened Def Con from 7.73572e-005 ++to 7.73572e-005
Heightened Def Con from 7.73572e-005 to 7.73572e-005
Heightened Def Con from 7.73572e-005 +to 7.73572e-005
Heightened Def Con from 7.73572e-005 to 7.73572e-005
Heightened Def Con from 7.73572e-005 +to 7.73572e-005
Heightened Def Con from 7.73572e-005 +++++to 7.73572e-005
Heightened Def Con from 7.73572e-005 to 7.73572e-005
Heightened Def Con from 7.73572e-005 +++++++++to 7.73572e-005
Heightened Def Con from 7.73572e-005 +to 7.73574e-005
Heightened Def Con from 7.73574e-005 to 7.73585e-005
Heightened Def Con from 7.7359e-005 to 7.7362e-005
Heightened Def Con from 7.73713e-005 to 7.73743e-005
Heightened Def Con from 7.79313e-005 to 7.79343e-005
Heightened Def Con from 7.79343e-005 +to 7.79343e-005
Heightened Def Con from 7.79352e-005 to 7.79372e-005
Heightened Def Con from 7.79372e-005 to 7.79382e-005
Heightened Def Con from 7.79383e-005 to 7.79383e-005
Heightened Def Con from 7.79383e-005 +++++to 7.79383e-005
Heightened Def Con from 7.79383e-005 to 7.79383e-005
Heightened Def Con from 7.79383e-005 to 7.79383e-005
Heightened Def Con from 7.79383e-005 to 7.79383e-005
Heightened Def Con from 7.79383e-005 ++to 7.79383e-005
Heightened Def Con from 7.79383e-005 to 7.79383e-005
Heightened Def Con from 7.79383e-005 ++to 7.79383e-005
Heightened Def Con from 7.79383e-005 to 7.79383e-005
Heightened Def Con from 7.79383e-005 +to 7.79383e-005
Heightened Def Con from 7.79383e-005 +to 7.79383e-005
Heightened Def Con from 7.79383e-005 +to 7.79383e-005
Heightened Def Con from 7.79383e-005 +to 7.79383e-005
Heightened Def Con from 7.79383e-005 to 7.79383e-005
Heightened Def Con from 7.79383e-005 to 7.79383e-005
Heightened Def Con from 7.79383e-005 to 7.79383e-005
Heightened Def Con from 7.79383e-005 ++to 7.79383e-005
Heightened Def Con from 7.79383e-005 to 7.79383e-005
Heightened Def Con from 7.79383e-005 to 7.79383e-005
Heightened Def Con from 7.79383e-005 to 7.79383e-005
Heightened Def Con from 7.79383e-005 to 7.79394e-005
Heightened Def Con from 7.79397e-005 to 7.79478e-005
Heightened Def Con from 7.79507e-005 to 7.79528e-005
Heightened Def Con from 7.79534e-005 to 7.79535e-005
Heightened Def Con from 7.79535e-005 to 7.79535e-005
Heightened Def Con from 7.79535e-005 +to 7.79535e-005
Heightened Def Con from 7.79535e-005 to 7.79535e-005
Heightened Def Con from 7.79535e-005 to 7.79535e-005
Heightened Def Con from 7.79535e-005 to 7.79535e-005
Heightened Def Con from 7.79535e-005 ++to 7.79535e-005
Heightened Def Con from 7.79535e-005 ++to 7.79535e-005
Heightened Def Con from 7.79535e-005 to 7.79536e-005
Heightened Def Con from 7.79536e-005 to 7.79566e-005
Heightened Def Con from 7.96752e-005 to 7.96756e-005
Heightened Def Con from 7.96796e-005 to 7.96808e-005
Heightened Def Con from 7.96959e-005 to 7.96979e-005
Heightened Def Con from 7.96979e-005 to 7.97009e-005
Heightened Def Con from 8.03144e-005 to 8.03164e-005
Heightened Def Con from 8.03169e-005 to 8.03179e-005
Heightened Def Con from 8.03182e-005 to 8.03202e-005
Heightened Def Con from 8.03202e-005 to 8.03202e-005
Heightened Def Con from 8.03202e-005 to 8.03333e-005
Heightened Def Con from 8.03374e-005 to 8.03395e-005
Heightened Def Con from 8.034e-005 to 8.0343e-005
Heightened Def Con from 8.03431e-005 to 8.03461e-005
Heightened Def Con from 8.03556e-005 to 8.03558e-005
Heightened Def Con from 8.03559e-005 to 8.03571e-005
Heightened Def Con from 8.03579e-005 to 8.03579e-005
Heightened Def Con from 8.03579e-005 to 8.03609e-005
Heightened Def Con from 8.05262e-005 to 8.05292e-005
Heightened Def Con from 8.06913e-005 to 8.06924e-005
Heightened Def Con from 8.06929e-005 to 8.06959e-005
Heightened Def Con from 8.2069e-005 to 8.20694e-005
Heightened Def Con from 8.20718e-005 to 8.20718e-005
Heightened Def Con from 8.20768e-005 to 8.20771e-005
Heightened Def Con from 8.20806e-005 to 8.20806e-005
Heightened Def Con from 8.20806e-005 to 8.20836e-005
Heightened Def Con from 8.20862e-005 to 8.20893e-005
Heightened Def Con from 8.27282e-005 to 8.27302e-005
Heightened Def Con from 8.27303e-005 to 8.27314e-005
Heightened Def Con from 8.27321e-005 to 8.27325e-005
Heightened Def Con from 8.27325e-005 to 8.27325e-005
Heightened Def Con from 8.27325e-005 to 8.27346e-005
Heightened Def Con from 8.27347e-005 to 8.27348e-005
Heightened Def Con from 8.27399e-005 to 8.2741e-005
Heightened Def Con from 8.2741e-005 to 8.27411e-005
Heightened Def Con from 8.27412e-005 to 8.27423e-005
Heightened Def Con from 8.27444e-005 to 8.27474e-005
Heightened Def Con from 8.42765e-005 to 8.42765e-005
Heightened Def Con from 8.42783e-005 to 8.42783e-005
Heightened Def Con from 8.42783e-005 to 8.42823e-005
Heightened Def Con from 8.42858e-005 to 8.42869e-005
Heightened Def Con from 8.42875e-005 to 8.42886e-005
Heightened Def Con from 8.42912e-005 to 8.42953e-005
Heightened Def Con from 8.42953e-005 to 8.42964e-005
Heightened Def Con from 8.42968e-005 to 8.42968e-005
Heightened Def Con from 8.42969e-005 to 8.4299e-005
Heightened Def Con from 8.43095e-005 to 8.43125e-005
Heightened Def Con from 8.43135e-005 to 8.43165e-005
Heightened Def Con from 8.44058e-005 to 8.4407e-005
Heightened Def Con from 8.49954e-005 to 8.49984e-005
Heightened Def Con from 8.49992e-005 to 8.50013e-005
Heightened Def Con from 8.50031e-005 to 8.50032e-005
Heightened Def Con from 8.50039e-005 to 8.5006e-005
Heightened Def Con from 8.63319e-005 to 8.63349e-005
Heightened Def Con from 8.63375e-005 to 8.63405e-005
Heightened Def Con from 8.64962e-005 to 8.65002e-005
Heightened Def Con from 8.65035e-005 to 8.65065e-005
Heightened Def Con from 8.65087e-005 to 8.65097e-005
Heightened Def Con from 8.65097e-005 to 8.65128e-005
Heightened Def Con from 8.65135e-005 to 8.65145e-005
Heightened Def Con from 8.65145e-005 to 8.65156e-005
Heightened Def Con from 8.65159e-005 to 8.65169e-005
Heightened Def Con from 8.65169e-005 to 8.6519e-005
Heightened Def Con from 8.6519e-005 to 8.65191e-005
Heightened Def Con from 8.65191e-005 to 8.65221e-005
Heightened Def Con from 8.72242e-005 to 8.72253e-005
Heightened Def Con from 8.72254e-005 to 8.72265e-005
Heightened Def Con from 8.72266e-005 to 8.72296e-005
Heightened Def Con from 8.72296e-005 to 8.72297e-005
Heightened Def Con from 8.72309e-005 to 8.72309e-005
Heightened Def Con from 8.72309e-005 to 8.72329e-005
Heightened Def Con from 8.72329e-005 to 8.72361e-005
Heightened Def Con from 8.72363e-005 to 8.72373e-005
Heightened Def Con from 8.72375e-005 to 8.72385e-005
Heightened Def Con from 8.7239e-005 to 8.72412e-005
Heightened Def Con from 8.72419e-005 to 8.72489e-005
Heightened Def Con from 8.72489e-005 to 8.72519e-005
Heightened Def Con from 8.86107e-005 to 8.86137e-005
Heightened Def Con from 8.86143e-005 to 8.86143e-005
Heightened Def Con from 8.86143e-005 to 8.86173e-005
Heightened Def Con from 8.86173e-005 to 8.86174e-005
Heightened Def Con from 8.86175e-005 to 8.86186e-005
Heightened Def Con from 8.86203e-005 to 8.86213e-005
Heightened Def Con from 8.86355e-005 to 8.86385e-005
Heightened Def Con from 8.86968e-005 to 8.86998e-005
Heightened Def Con from 8.92912e-005 to 8.92915e-005
Heightened Def Con from 8.92916e-005 to 8.92936e-005
Heightened Def Con from 8.93096e-005 to 8.93107e-005
Heightened Def Con from 8.93818e-005 to 8.93821e-005
Heightened Def Con from 8.93827e-005 to 8.93838e-005
Heightened Def Con from 8.93851e-005 to 8.93873e-005
Heightened Def Con from 8.93886e-005 to 8.93956e-005
Heightened Def Con from 8.93956e-005 to 8.93978e-005
Heightened Def Con from 8.94347e-005 to 8.94377e-005
Heightened Def Con from 9.07392e-005 to 9.07424e-005
Heightened Def Con from 9.07427e-005 to 9.0743e-005
Heightened Def Con from 9.07472e-005 to 9.07502e-005
Heightened Def Con from 9.14839e-005 to 9.14849e-005
Heightened Def Con from 9.14851e-005 to 9.14871e-005
Heightened Def Con from 9.15228e-005 to 9.15239e-005
Heightened Def Con from 9.15239e-005 to 9.15239e-005
Heightened Def Con from 9.15245e-005 to 9.15245e-005
Heightened Def Con from 9.15245e-005 to 9.15246e-005
Heightened Def Con from 9.15253e-005 to 9.15345e-005
Heightened Def Con from 9.15353e-005 to 9.15374e-005
Heightened Def Con from 9.15374e-005 to 9.15374e-005
Heightened Def Con from 9.15374e-005 +to 9.15374e-005
Heightened Def Con from 9.15374e-005 to 9.15374e-005
Heightened Def Con from 9.15374e-005 +++++++++to 9.15374e-005
Heightened Def Con from 9.15374e-005 to 9.15374e-005
Heightened Def Con from 9.15374e-005 ++++++to 9.15374e-005
Heightened Def Con from 9.15374e-005 ++to 9.15374e-005
Heightened Def Con from 9.15374e-005 ++to 9.15374e-005
Heightened Def Con from 9.15374e-005 to 9.15404e-005
Heightened Def Con from 9.27656e-005 to 9.27657e-005
Heightened Def Con from 9.27662e-005 to 9.27674e-005
Heightened Def Con from 9.27738e-005 to 9.27778e-005
Heightened Def Con from 9.27789e-005 to 9.27793e-005
Heightened Def Con from 9.27828e-005 to 9.2784e-005
Heightened Def Con from 9.27845e-005 to 9.27846e-005
Heightened Def Con from 9.27846e-005 to 9.27876e-005
Heightened Def Con from 9.27989e-005 to 9.28e-005
Heightened Def Con from 9.28035e-005 to 9.28038e-005
Heightened Def Con from 9.29837e-005 ++to 9.29837e-005
Heightened Def Con from 9.29837e-005 ++++to 9.29837e-005
Heightened Def Con from 9.29837e-005 +to 9.29837e-005
Heightened Def Con from 9.29837e-005 to 9.29867e-005
Heightened Def Con from 9.34252e-005 to 9.34262e-005
Heightened Def Con from 9.34284e-005 to 9.34286e-005
Heightened Def Con from 9.34287e-005 to 9.34288e-005
Heightened Def Con from 9.34289e-005 to 9.343e-005
Heightened Def Con from 9.3583e-005 to 9.35831e-005
Heightened Def Con from 9.35834e-005 to 9.35834e-005
Heightened Def Con from 9.35834e-005 to 9.35834e-005
Heightened Def Con from 9.35834e-005 to 9.35838e-005
Heightened Def Con from 9.35868e-005 to 9.35898e-005
Heightened Def Con from 9.359e-005 to 9.3593e-005
Heightened Def Con from 9.36027e-005 to 9.36031e-005
Heightened Def Con from 9.36125e-005 to 9.36137e-005
Heightened Def Con from 9.48359e-005 to 9.48379e-005
Heightened Def Con from 9.48384e-005 to 9.48388e-005
Heightened Def Con from 9.485e-005 ++++++++++++to 9.485e-005
Heightened Def Con from 9.485e-005 ++++++++++++++to 9.485e-005
Heightened Def Con from 9.485e-005 +++++++++++++to 9.485e-005
Heightened Def Con from 9.485e-005 +++to 9.485e-005
Heightened Def Con from 9.485e-005 to 9.48511e-005
Heightened Def Con from 9.48513e-005 to 9.48523e-005
Heightened Def Con from 9.48523e-005 to 9.48534e-005
Heightened Def Con from 9.48539e-005 to 9.48549e-005
Heightened Def Con from 9.48549e-005 to 9.48549e-005
Heightened Def Con from 9.4855e-005 to 9.4856e-005
Heightened Def Con from 9.4856e-005 to 9.4859e-005
Heightened Def Con from 9.48676e-005 to 9.48706e-005
Heightened Def Con from 9.48777e-005 to 9.48779e-005
Heightened Def Con from 9.48783e-005 to 9.48794e-005
Heightened Def Con from 9.48815e-005 to 9.48815e-005
Heightened Def Con from 9.48849e-005 to 9.4887e-005
Heightened Def Con from 9.48871e-005 to 9.48872e-005
Heightened Def Con from 9.48875e-005 to 9.48905e-005
Heightened Def Con from 9.56806e-005 to 9.56826e-005
Heightened Def Con from 9.56826e-005 to 9.56827e-005
Heightened Def Con from 9.56827e-005 to 9.56837e-005
Heightened Def Con from 9.56839e-005 to 9.56869e-005
Heightened Def Con from 9.5687e-005 to 9.56881e-005
Heightened Def Con from 9.56883e-005 to 9.56884e-005
Heightened Def Con from 9.56889e-005 to 9.56889e-005
Heightened Def Con from 9.56889e-005 to 9.56892e-005
Heightened Def Con from 9.56892e-005 to 9.56896e-005
Heightened Def Con from 9.56922e-005 to 9.56944e-005
Heightened Def Con from 9.56945e-005 to 9.56956e-005
Heightened Def Con from 9.56977e-005 to 9.56981e-005
Heightened Def Con from 9.66642e-005 to 9.66662e-005
Heightened Def Con from 9.667e-005 to 9.6673e-005
Heightened Def Con from 9.68307e-005 to 9.68327e-005
Heightened Def Con from 9.68347e-005 to 9.68387e-005
Heightened Def Con from 9.68408e-005 to 9.68419e-005
Heightened Def Con from 9.68491e-005 to 9.68495e-005
Heightened Def Con from 9.68495e-005 to 9.68506e-005
Heightened Def Con from 9.6851e-005 to 9.6851e-005
Heightened Def Con from 9.6851e-005 to 9.68513e-005
Heightened Def Con from 9.68514e-005 to 9.68516e-005
Heightened Def Con from 9.68517e-005 to 9.68519e-005
Heightened Def Con from 9.68519e-005 to 9.68529e-005
Heightened Def Con from 9.6853e-005 to 9.68542e-005
Heightened Def Con from 9.68566e-005 to 9.68569e-005
Heightened Def Con from 9.68569e-005 to 9.68571e-005
Heightened Def Con from 9.68585e-005 to 9.68585e-005
Heightened Def Con from 9.68585e-005 to 9.68615e-005
Heightened Def Con from 9.68778e-005 to 9.68778e-005
Heightened Def Con from 9.68778e-005 to 9.6878e-005
Heightened Def Con from 9.68791e-005 to 9.68812e-005
Heightened Def Con from 9.68819e-005 to 9.6883e-005
Heightened Def Con from 9.68842e-005 to 9.68872e-005
Heightened Def Con from 9.7321e-005 to 9.7325e-005
Heightened Def Con from 9.73426e-005 to 9.7343e-005
Heightened Def Con from 9.77102e-005 to 9.77123e-005
Heightened Def Con from 9.77134e-005 to 9.77134e-005
Heightened Def Con from 9.77134e-005 to 9.77134e-005
Heightened Def Con from 9.77134e-005 to 9.77135e-005
Heightened Def Con from 9.77135e-005 to 9.77156e-005
Heightened Def Con from 9.77168e-005 to 9.77188e-005
Heightened Def Con from 9.77202e-005 to 9.77252e-005
Heightened Def Con from 9.77253e-005 to 9.77314e-005
Heightened Def Con from 9.77315e-005 to 9.77345e-005
Heightened Def Con from 9.77345e-005 to 9.77355e-005
Heightened Def Con from 9.77415e-005 to 9.77417e-005
Heightened Def Con from 9.77437e-005 to 9.77467e-005
Heightened Def Con from 9.77538e-005 to 9.77548e-005
Heightened Def Con from 9.77548e-005 to 9.77559e-005
Heightened Def Con from 9.7756e-005 to 9.77581e-005
Heightened Def Con from 9.79193e-005 to 9.79205e-005
Heightened Def Con from 9.79328e-005 to 9.79358e-005
Heightened Def Con from 9.88435e-005 to 9.88475e-005
Heightened Def Con from 9.88495e-005 to 9.88507e-005
Heightened Def Con from 9.88528e-005 to 9.88558e-005
Heightened Def Con from 9.88558e-005 to 9.88588e-005
Heightened Def Con from 9.88588e-005 to 9.88588e-005
Heightened Def Con from 9.88588e-005 to 9.8859e-005
Heightened Def Con from 9.8859e-005 to 9.88601e-005
Heightened Def Con from 9.88603e-005 to 9.88606e-005
Heightened Def Con from 9.88606e-005 to 9.88608e-005
Heightened Def Con from 9.88608e-005 to 9.8861e-005
Heightened Def Con from 9.8861e-005 to 9.88613e-005
Heightened Def Con from 9.88615e-005 to 9.88626e-005
Heightened Def Con from 9.88636e-005 to 9.88647e-005
Heightened Def Con from 9.89081e-005 to 9.89101e-005
Heightened Def Con from 9.97673e-005 to 9.97703e-005
Heightened Def Con from 9.97739e-005 to 9.9775e-005
Heightened Def Con from 9.9775e-005 to 9.97752e-005
Heightened Def Con from 9.97752e-005 to 9.97756e-005
Heightened Def Con from 9.9776e-005 to 9.97771e-005
Heightened Def Con from 9.97775e-005 to 9.97779e-005
Heightened Def Con from 9.97781e-005 to 9.97793e-005
Heightened Def Con from 0.000100895 to 0.000100895
Heightened Def Con from 0.000100896 to 0.000100898
Heightened Def Con from 0.000100898 to 0.000100903
Heightened Def Con from 0.000100906 to 0.000100907
Heightened Def Con from 0.000100912 to 0.000100917
Heightened Def Con from 0.000100918 to 0.000100918
Heightened Def Con from 0.000100918 to 0.000100919
Heightened Def Con from 0.000100941 to 0.000100943
Heightened Def Con from 0.000100943 to 0.000100946
Heightened Def Con from 0.00010095 to 0.00010095
Heightened Def Con from 0.00010095 to 0.000100953
Heightened Def Con from 0.000101658 to 0.000101659
Heightened Def Con from 0.000101663 ++++++to 0.000101663
Heightened Def Con from 0.000101663 +++to 0.000101663
Heightened Def Con from 0.000101663 +to 0.000101664
Heightened Def Con from 0.000101671 to 0.000101675
Heightened Def Con from 0.000101824 to 0.000101825
Heightened Def Con from 0.000101825 to 0.000101825
Heightened Def Con from 0.000101828 to 0.000101831
Heightened Def Con from 0.000101835 to 0.000101836
Heightened Def Con from 0.000101836 to 0.000101836
Heightened Def Con from 0.000101836 to 0.000101837
Heightened Def Con from 0.000101837 to 0.000101837
Heightened Def Con from 0.000101838 to 0.000101838
Heightened Def Con from 0.000101838 to 0.000101838
Heightened Def Con from 0.000101839 to 0.000101839
Heightened Def Con from 0.000101839 to 0.000101839
Heightened Def Con from 0.000101839 to 0.00010184
Heightened Def Con from 0.00010184 to 0.00010184
Heightened Def Con from 0.00010184 to 0.000101841
Heightened Def Con from 0.000101845 to 0.000101845
Heightened Def Con from 0.000101845 to 0.000101846
Heightened Def Con from 0.000101847 to 0.000101847
Heightened Def Con from 0.000101847 to 0.00010185
Heightened Def Con from 0.000101852 to 0.000101855
Heightened Def Con from 0.000102237 to 0.000102241
Heightened Def Con from 0.000102243 to 0.000102243
Heightened Def Con from 0.000102247 to 0.000102247
Heightened Def Con from 0.000102252 to 0.000102253
Heightened Def Con from 0.000102253 to 0.000102254
Heightened Def Con from 0.000102263 to 0.000102264
Heightened Def Con from 0.000102264 to 0.000102265
Heightened Def Con from 0.000102758 to 0.000102759
Heightened Def Con from 0.000102922 to 0.000102927
Heightened Def Con from 0.000102937 to 0.000102938
Heightened Def Con from 0.000102939 to 0.00010294
Heightened Def Con from 0.00010294 to 0.000102941
Heightened Def Con from 0.000102941 to 0.000102943
Heightened Def Con from 0.000102958 to 0.000102958
Heightened Def Con from 0.000102962 to 0.000102962
Heightened Def Con from 0.000102962 to 0.000102963
Heightened Def Con from 0.000102963 to 0.000102966
Heightened Def Con from 0.000102967 to 0.000102968
Heightened Def Con from 0.000102972 to 0.000102974
Heightened Def Con from 0.000102975 to 0.000102975
Heightened Def Con from 0.000102976 to 0.000102979
Heightened Def Con from 0.000103895 to 0.000103897
Heightened Def Con from 0.000103902 to 0.000103903
Heightened Def Con from 0.000103903 to 0.000103905
Heightened Def Con from 0.000103905 to 0.000103905
Heightened Def Con from 0.000103905 to 0.000103913
Heightened Def Con from 0.000103913 to 0.000103914
Heightened Def Con from 0.000103915 to 0.000103916
Heightened Def Con from 0.000103932 to 0.000103932
Heightened Def Con from 0.000103932 to 0.000103932
Heightened Def Con from 0.000103932 to 0.000103935
Heightened Def Con from 0.000103963 to 0.000103963
Heightened Def Con from 0.000103963 to 0.000103964
Heightened Def Con from 0.000103965 to 0.000103967
Heightened Def Con from 0.000104979 to 0.000104979
Heightened Def Con from 0.000104979 to 0.000104979
Heightened Def Con from 0.000104979 to 0.00010498
Heightened Def Con from 0.00010498 to 0.000104983
Heightened Def Con from 0.000104992 to 0.000104992
Heightened Def Con from 0.000104992 to 0.000104996
Heightened Def Con from 0.000104997 to 0.000104998
Heightened Def Con from 0.000104998 to 0.000104998
Heightened Def Con from 0.000104998 to 0.000104999
Heightened Def Con from 0.000104999 to 0.000105002
Heightened Def Con from 0.000105002 to 0.000105003
Heightened Def Con from 0.000105004 to 0.000105005
Heightened Def Con from 0.000105005 to 0.000105008
Heightened Def Con from 0.000105008 to 0.000105011
Heightened Def Con from 0.00010502 to 0.000105021
Heightened Def Con from 0.000105022 to 0.000105022
Heightened Def Con from 0.000105022 to 0.000105023
Heightened Def Con from 0.000105947 to 0.00010595
Heightened Def Con from 0.000105954 to 0.000105956
Heightened Def Con from 0.000105966 to 0.000105968
Heightened Def Con from 0.000105968 to 0.000105971
Heightened Def Con from 0.000105974 to 0.000105975
Heightened Def Con from 0.000106375 to 0.000106378
Heightened Def Con from 0.000106381 to 0.000106384
Heightened Def Con from 0.000106384 to 0.000106384
Heightened Def Con from 0.000106547 to 0.00010655
Heightened Def Con from 0.000106554 to 0.000106556
Heightened Def Con from 0.000106557 to 0.000106557
Heightened Def Con from 0.000106557 to 0.000106565
Heightened Def Con from 0.000106569 to 0.000106572
Heightened Def Con from 0.000106794 to 0.000106794
Heightened Def Con from 0.000106795 to 0.000106797
Heightened Def Con from 0.000106798 to 0.0001068
Heightened Def Con from 0.000106803 to 0.000106805
Heightened Def Con from 0.000106805 to 0.000106805
Heightened Def Con from 0.000106805 to 0.000106805
Heightened Def Con from 0.000106805 to 0.000106808
Heightened Def Con from 0.000106808 to 0.000106809
Heightened Def Con from 0.00010681 to 0.000106812
Heightened Def Con from 0.000106824 to 0.000106825
Heightened Def Con from 0.000106945 to 0.000106947
Heightened Def Con from 0.000106955 to 0.000106957
Heightened Def Con from 0.000106962 to 0.000106962
Heightened Def Con from 0.000106962 to 0.000106964
Heightened Def Con from 0.000106971 to 0.000106971
Heightened Def Con from 0.000106971 to 0.000106971
Heightened Def Con from 0.000106971 to 0.000106974
Heightened Def Con from 0.000106981 to 0.000106981
Heightened Def Con from 0.000106982 to 0.000106983
Heightened Def Con from 0.000106983 to 0.000106983
Heightened Def Con from 0.000106983 to 0.000106985
Heightened Def Con from 0.000106985 to 0.000106986
Heightened Def Con from 0.000106988 to 0.000106988
Heightened Def Con from 0.000106988 to 0.000106988
Heightened Def Con from 0.000106989 to 0.000106989
Heightened Def Con from 0.000106989 to 0.000106989
Heightened Def Con from 0.000106989 to 0.000106994
Heightened Def Con from 0.000106994 to 0.000106994
Heightened Def Con from 0.000106994 to 0.000106997
Heightened Def Con from 0.000107003 to 0.000107006
Heightened Def Con from 0.000107014 to 0.000107017
Heightened Def Con from 0.000107028 to 0.000107029
Heightened Def Con from 0.000107059 to 0.000107061
Heightened Def Con from 0.000107069 to 0.000107071
Heightened Def Con from 0.000107962 to 0.000107963
Heightened Def Con from 0.000107985 to 0.000107985
Heightened Def Con from 0.000107992 to 0.000107996
Heightened Def Con from 0.000107998 to 0.000108001
Heightened Def Con from 0.000108003 to 0.000108004
Heightened Def Con from 0.000108004 to 0.000108005
Heightened Def Con from 0.000108006 to 0.000108006
Heightened Def Con from 0.000108006 to 0.000108007
Heightened Def Con from 0.000108007 to 0.000108007
Heightened Def Con from 0.000108013 to 0.000108016
Heightened Def Con from 0.000108016 to 0.000108016
Heightened Def Con from 0.000108017 to 0.000108017
Heightened Def Con from 0.000108017 to 0.00010802
Heightened Def Con from 0.000108021 +to 0.000108021
Heightened Def Con from 0.000108021 +to 0.000108021
Heightened Def Con from 0.000108021 ++to 0.000108021
Heightened Def Con from 0.000108021 +to 0.000108021
Heightened Def Con from 0.000108021 +to 0.000108021
Heightened Def Con from 0.000108021 ++to 0.000108021
Heightened Def Con from 0.000108021 +++++++++++to 0.000108021
Heightened Def Con from 0.000108021 +++++to 0.000108021
Heightened Def Con from 0.000108021 +to 0.000108021
Heightened Def Con from 0.000108021 +to 0.000108021
Heightened Def Con from 0.000108021 +++++++++++to 0.000108021
Heightened Def Con from 0.000108021 to 0.000108021
Heightened Def Con from 0.000108021 to 0.000108021
Heightened Def Con from 0.000108021 to 0.000108021
Heightened Def Con from 0.000108021 to 0.000108022
Heightened Def Con from 0.000108023 +to 0.000108023
Heightened Def Con from 0.000108023 to 0.000108024
Heightened Def Con from 0.000108024 to 0.000108025
Heightened Def Con from 0.000108073 to 0.000108073
Heightened Def Con from 0.000108074 to 0.000108074
Heightened Def Con from 0.000108101 to 0.000108101
Heightened Def Con from 0.000108101 to 0.000108102
Heightened Def Con from 0.000108102 to 0.000108104
Heightened Def Con from 0.000108105 to 0.000108105
Heightened Def Con from 0.000108105 to 0.000108107
Heightened Def Con from 0.000108107 +++to 0.000108107
Heightened Def Con from 0.000108107 +++++to 0.000108107
Heightened Def Con from 0.000108107 +++++to 0.000108108
Heightened Def Con from 0.000108109 to 0.000108111
Heightened Def Con from 0.000108111 to 0.000108113
Heightened Def Con from 0.000108872 to 0.000108875
Heightened Def Con from 0.000108884 to 0.000108886
Heightened Def Con from 0.000108886 to 0.000108888
Heightened Def Con from 0.000108889 to 0.000108889
Heightened Def Con from 0.000108891 to 0.000108891
Heightened Def Con from 0.000108891 to 0.000108894
Heightened Def Con from 0.000108894 to 0.000108897
Heightened Def Con from 0.000109038 to 0.000109039
Heightened Def Con from 0.00010904 to 0.000109041
Heightened Def Con from 0.000109041 to 0.000109044
Heightened Def Con from 0.000109051 to 0.000109055
Heightened Def Con from 0.000109055 to 0.000109056
Heightened Def Con from 0.000109056 to 0.000109056
Heightened Def Con from 0.000109056 to 0.000109057
Heightened Def Con from 0.000109058 to 0.00010906
Heightened Def Con from 0.00010908 to 0.00010908
Heightened Def Con from 0.000109089 to 0.00010909
Heightened Def Con from 0.00010909 to 0.00010909
Heightened Def Con from 0.00010909 to 0.00010909
Heightened Def Con from 0.00010909 to 0.00010909
Heightened Def Con from 0.00010909 to 0.00010909
Heightened Def Con from 0.00010909 to 0.000109091
Heightened Def Con from 0.000109092 to 0.000109093
Heightened Def Con from 0.000109105 to 0.000109105
Heightened Def Con from 0.000109105 to 0.000109107
Heightened Def Con from 0.000109115 to 0.000109115
Heightened Def Con from 0.000109115 to 0.000109117
Heightened Def Con from 0.000109117 to 0.000109119
Heightened Def Con from 0.000110072 to 0.000110073
Heightened Def Con from 0.000110073 to 0.000110073
Heightened Def Con from 0.000110078 to 0.000110078
Heightened Def Con from 0.000110079 to 0.000110081
Heightened Def Con from 0.000110083 to 0.000110083
Heightened Def Con from 0.000110083 to 0.000110084
Heightened Def Con from 0.000110084 to 0.000110092
Heightened Def Con from 0.000110095 to 0.000110098
Heightened Def Con from 0.000110103 to 0.000110104
Heightened Def Con from 0.000110105 to 0.000110108
Heightened Def Con from 0.000110146 to 0.000110146
Heightened Def Con from 0.000110262 to 0.000110262
Heightened Def Con from 0.000110263 to 0.000110267
Heightened Def Con from 0.000110285 to 0.000110286
Heightened Def Con from 0.000110292 to 0.000110292
Heightened Def Con from 0.000110292 to 0.000110292
Heightened Def Con from 0.000110292 to 0.000110294
Heightened Def Con from 0.00011069 to 0.000110691
Heightened Def Con from 0.000110696 to 0.000110696
Heightened Def Con from 0.000110696 to 0.000110696
Heightened Def Con from 0.000110696 to 0.000110699
Heightened Def Con from 0.000110699 to 0.000110699
Heightened Def Con from 0.000110699 to 0.000110702
Heightened Def Con from 0.000110852 to 0.000110854
Heightened Def Con from 0.00011086 to 0.000110864
Heightened Def Con from 0.000110864 to 0.000110865
Heightened Def Con from 0.000110865 to 0.000110866
Heightened Def Con from 0.00011087 to 0.000110873
Heightened Def Con from 0.000110876 to 0.000110876
Heightened Def Con from 0.000110877 to 0.000110877
Heightened Def Con from 0.000110878 to 0.000110878
Heightened Def Con from 0.00011088 to 0.000110884
Heightened Def Con from 0.000110904 to 0.000110906
Heightened Def Con from 0.000110917 to 0.000110917
Heightened Def Con from 0.000110917 to 0.000110918
Heightened Def Con from 0.000110925 to 0.000110928
Heightened Def Con from 0.000111091 to 0.000111095
Heightened Def Con from 0.000111099 to 0.000111099
Heightened Def Con from 0.000111103 to 0.000111103
Heightened Def Con from 0.000111103 to 0.000111103
Heightened Def Con from 0.000111103 to 0.000111104
Heightened Def Con from 0.000111105 to 0.000111107
Heightened Def Con from 0.000111108 to 0.000111108
Heightened Def Con from 0.000111108 to 0.000111108
Heightened Def Con from 0.000111108 to 0.000111109
Heightened Def Con from 0.000111111 to 0.000111111
Heightened Def Con from 0.000111117 to 0.000111119
Heightened Def Con from 0.000111128 to 0.00011113
Heightened Def Con from 0.000111132 to 0.000111134
Heightened Def Con from 0.000112081 to 0.000112082
Heightened Def Con from 0.000112082 to 0.000112084
Heightened Def Con from 0.000112115 to 0.000112117
Heightened Def Con from 0.000112119 to 0.00011212
Heightened Def Con from 0.00011212 to 0.000112121
Heightened Def Con from 0.000112122 to 0.000112122
Heightened Def Con from 0.000112122 to 0.000112122
Heightened Def Con from 0.000112126 to 0.000112126
Heightened Def Con from 0.000112126 to 0.000112126
Heightened Def Con from 0.000112126 to 0.000112127
Heightened Def Con from 0.000112127 to 0.000112128
Heightened Def Con from 0.000112129 to 0.00011213
Heightened Def Con from 0.00011213 to 0.000112131
Heightened Def Con from 0.000112131 to 0.000112131
Heightened Def Con from 0.000112131 to 0.000112131
Heightened Def Con from 0.000112131 to 0.000112137
Heightened Def Con from 0.000112138 to 0.000112142
Heightened Def Con from 0.000112144 to 0.000112147
Heightened Def Con from 0.000112164 to 0.000112165
Heightened Def Con from 0.000112165 to 0.000112166
Heightened Def Con from 0.000112166 to 0.000112167
Heightened Def Con from 0.000112175 to 0.000112175
Heightened Def Con from 0.000112176 to 0.000112178
Heightened Def Con from 0.000112178 to 0.000112181
Heightened Def Con from 0.000112197 to 0.000112199
Heightened Def Con from 0.000112921 to 0.000112923
Heightened Def Con from 0.000112925 to 0.000112926
Heightened Def Con from 0.000112926 to 0.000112928
Heightened Def Con from 0.000112931 to 0.000112931
Heightened Def Con from 0.000112931 to 0.000112933
Heightened Def Con from 0.000112933 to 0.000112936
Heightened Def Con from 0.00011294 to 0.000112943
Heightened Def Con from 0.000112946 to 0.000112946
Heightened Def Con from 0.000112946 to 0.000112947
Heightened Def Con from 0.000112947 to 0.00011295
Heightened Def Con from 0.000113078 to 0.000113078
Heightened Def Con from 0.000113078 to 0.000113079
Heightened Def Con from 0.000113079 to 0.00011308
Heightened Def Con from 0.00011308 to 0.00011308
Heightened Def Con from 0.00011308 to 0.000113082
Heightened Def Con from 0.000113084 to 0.000113086
Heightened Def Con from 0.000113087 to 0.000113087
Heightened Def Con from 0.000113088 to 0.000113091
Heightened Def Con from 0.000113091 to 0.000113094
Heightened Def Con from 0.000113096 to 0.000113099
Heightened Def Con from 0.000113103 to 0.000113104
Heightened Def Con from 0.000113104 to 0.000113105
Heightened Def Con from 0.000113108 to 0.000113108
Heightened Def Con from 0.000113108 to 0.000113109
Heightened Def Con from 0.000113109 to 0.00011311
Heightened Def Con from 0.00011311 to 0.00011311
Heightened Def Con from 0.00011311 to 0.000113113
Heightened Def Con from 0.000113122 to 0.000113125
Heightened Def Con from 0.00011314 to 0.000113141
Heightened Def Con from 0.000113141 to 0.000113141
Heightened Def Con from 0.000113144 to 0.000113145
Heightened Def Con from 0.000113148 to 0.00011315
Heightened Def Con from 0.00011315 to 0.00011315
Heightened Def Con from 0.00011315 to 0.00011315
Heightened Def Con from 0.000113151 to 0.000113151
Heightened Def Con from 0.000113151 to 0.000113154
Heightened Def Con from 0.00011416 to 0.000114163
Heightened Def Con from 0.000114167 to 0.000114167
Heightened Def Con from 0.000114167 to 0.000114168
Heightened Def Con from 0.000114168 to 0.000114169
Heightened Def Con from 0.000114169 to 0.000114169
Heightened Def Con from 0.000114174 to 0.000114174
Heightened Def Con from 0.000114177 to 0.000114179
Heightened Def Con from 0.000114179 to 0.000114183
Heightened Def Con from 0.000114183 to 0.000114184
Heightened Def Con from 0.000114235 to 0.000114237
Heightened Def Con from 0.000114239 ++++++to 0.000114239
Heightened Def Con from 0.000114239 ++to 0.000114239
Heightened Def Con from 0.000114239 to 0.00011424
Heightened Def Con from 0.00011424 to 0.000114242
Heightened Def Con from 0.000114608 to 0.000114611
Heightened Def Con from 0.000114612 to 0.000114612
Heightened Def Con from 0.000114616 to 0.000114622
Heightened Def Con from 0.000114626 to 0.000114626
Heightened Def Con from 0.000114698 to 0.0001147
Heightened Def Con from 0.0001147 to 0.0001147
Heightened Def Con from 0.0001147 to 0.000114702
Heightened Def Con from 0.000115028 to 0.00011503
Heightened Def Con from 0.000115031 to 0.000115032
Heightened Def Con from 0.000115033 to 0.000115034
Heightened Def Con from 0.000115034 to 0.000115036
Heightened Def Con from 0.000115036 to 0.000115036
Heightened Def Con from 0.000115143 to 0.000115144
Heightened Def Con from 0.000115144 to 0.000115145
Heightened Def Con from 0.000115146 to 0.000115146
Heightened Def Con from 0.000115146 to 0.000115147
Heightened Def Con from 0.000115158 to 0.000115158
Heightened Def Con from 0.000115158 to 0.000115159
Heightened Def Con from 0.000115159 to 0.00011516
Heightened Def Con from 0.00011516 to 0.000115162
Heightened Def Con from 0.000115164 to 0.000115164
Heightened Def Con from 0.000115164 to 0.000115165
Heightened Def Con from 0.000115165 to 0.000115166
Heightened Def Con from 0.000115167 to 0.00011517
Heightened Def Con from 0.00011517 to 0.000115172
Heightened Def Con from 0.000115173 to 0.000115175
Heightened Def Con from 0.000115175 to 0.000115178
Heightened Def Con from 0.00011519 to 0.000115194
Heightened Def Con from 0.000115194 to 0.000115197
Heightened Def Con from 0.000115201 to 0.000115201
Heightened Def Con from 0.000115201 to 0.000115202
Heightened Def Con from 0.000115202 to 0.000115205
Heightened Def Con from 0.000115206 to 0.000115207
Heightened Def Con from 0.000115207 to 0.000115211
Heightened Def Con from 0.000115211 to 0.000115214
Heightened Def Con from 0.000115214 to 0.000115217
Heightened Def Con from 0.000115242 to 0.000115244
Heightened Def Con from 0.000115246 to 0.000115246
Heightened Def Con from 0.000115246 +++++++++++++++++++to 0.000115246
Heightened Def Con from 0.000115246 +++++to 0.000115246
Heightened Def Con from 0.000115246 to 0.000115249
Heightened Def Con from 0.000115249 to 0.000115251
Heightened Def Con from 0.000116194 to 0.000116196
Heightened Def Con from 0.000116202 to 0.000116203
Heightened Def Con from 0.000116203 to 0.000116205
Heightened Def Con from 0.000116231 to 0.000116231
Heightened Def Con from 0.000116234 to 0.000116236
Heightened Def Con from 0.000116236 to 0.000116236
Heightened Def Con from 0.000116239 to 0.000116242
Heightened Def Con from 0.000116242 to 0.000116242
Heightened Def Con from 0.000116242 to 0.000116242
Heightened Def Con from 0.000116242 to 0.000116242
Heightened Def Con from 0.000116242 to 0.000116242
Heightened Def Con from 0.000116242 to 0.000116242
Heightened Def Con from 0.000116242 to 0.000116243
Heightened Def Con from 0.000116243 to 0.000116243
Heightened Def Con from 0.000116243 to 0.000116244
Heightened Def Con from 0.000116245 to 0.000116246
Heightened Def Con from 0.000116248 to 0.000116249
Heightened Def Con from 0.000116249 to 0.000116252
Heightened Def Con from 0.000116252 to 0.000116252
Heightened Def Con from 0.000116254 to 0.000116258
Heightened Def Con from 0.000116268 to 0.000116269
Heightened Def Con from 0.000116278 to 0.000116279
Heightened Def Con from 0.000116279 to 0.000116279
Heightened Def Con from 0.000116279 to 0.00011628
Heightened Def Con from 0.00011628 to 0.000116282
Heightened Def Con from 0.000116282 to 0.000116285
Heightened Def Con from 0.000117199 to 0.000117199
Heightened Def Con from 0.000117199 to 0.000117203
Heightened Def Con from 0.000117203 to 0.000117203
Heightened Def Con from 0.000117203 to 0.000117204
Heightened Def Con from 0.000117204 to 0.000117205
Heightened Def Con from 0.000117206 to 0.000117207
Heightened Def Con from 0.00011721 to 0.000117211
Heightened Def Con from 0.000117212 to 0.000117212
Heightened Def Con from 0.000117212 to 0.000117212
Heightened Def Con from 0.000117212 to 0.000117213
Heightened Def Con from 0.000117216 to 0.000117217
Heightened Def Con from 0.000117217 to 0.000117218
Heightened Def Con from 0.000117219 to 0.00011722
Heightened Def Con from 0.000117222 to 0.000117225
Heightened Def Con from 0.000117236 to 0.000117238
Heightened Def Con from 0.000117239 to 0.000117239
Heightened Def Con from 0.000117239 to 0.000117241
Heightened Def Con from 0.000117241 to 0.000117244
Heightened Def Con from 0.000117262 to 0.000117262
Heightened Def Con from 0.000118327 to 0.000118329
Heightened Def Con from 0.000118329 to 0.000118331
Heightened Def Con from 0.000118334 to 0.000118335
Heightened Def Con from 0.000118336 to 0.000118336
Heightened Def Con from 0.000118336 to 0.000118337
Heightened Def Con from 0.000118337 to 0.000118338
Heightened Def Con from 0.000118339 to 0.000118339
Heightened Def Con from 0.000118347 to 0.000118351
Heightened Def Con from 0.000118353 to 0.000118353
Heightened Def Con from 0.000118353 to 0.000118353
Heightened Def Con from 0.000118353 to 0.000118355
Heightened Def Con from 0.000118355 to 0.000118358
Heightened Def Con from 0.000118362 to 0.000118364
Heightened Def Con from 0.000118369 to 0.000118369
Heightened Def Con from 0.000118371 to 0.000118372
Heightened Def Con from 0.000118373 to 0.000118374
Heightened Def Con from 0.000118374 to 0.000118375
Heightened Def Con from 0.000118376 to 0.000118379
Heightened Def Con from 0.000118928 to 0.000118928
Heightened Def Con from 0.000118928 to 0.000118929
Heightened Def Con from 0.000118945 to 0.000118945
Heightened Def Con from 0.000118945 to 0.000118948
Heightened Def Con from 0.00011895 to 0.00011895
Heightened Def Con from 0.00011895 to 0.000118953
Heightened Def Con from 0.000118954 to 0.000118954
Heightened Def Con from 0.000118954 to 0.000118954
Heightened Def Con from 0.000118954 to 0.000118958
Heightened Def Con from 0.00011896 to 0.000118961
Heightened Def Con from 0.000118962 to 0.000118963
Heightened Def Con from 0.000119142 to 0.000119143
Heightened Def Con from 0.000119144 to 0.000119147
Heightened Def Con from 0.000119147 to 0.000119149
Heightened Def Con from 0.000119152 to 0.000119153
Heightened Def Con from 0.000119153 to 0.000119156
Heightened Def Con from 0.000119313 to 0.000119315
Heightened Def Con from 0.000119316 to 0.000119316
Heightened Def Con from 0.000119316 to 0.000119318
Heightened Def Con from 0.000119318 to 0.000119318
Heightened Def Con from 0.000119318 to 0.000119319
Heightened Def Con from 0.000119321 to 0.000119322
Heightened Def Con from 0.000119325 to 0.000119325
Heightened Def Con from 0.000119325 to 0.000119325
Heightened Def Con from 0.000119326 to 0.000119326
Heightened Def Con from 0.000119327 to 0.000119327
Heightened Def Con from 0.000119327 to 0.000119327
Heightened Def Con from 0.000119327 to 0.00011933
Heightened Def Con from 0.000119331 to 0.000119331
Heightened Def Con from 0.000119341 to 0.000119344
Heightened Def Con from 0.000119358 to 0.000119358
Heightened Def Con from 0.000119358 to 0.000119361
Heightened Def Con from 0.000119362 to 0.000119363
Heightened Def Con from 0.000119363 to 0.000119363
Heightened Def Con from 0.00011938 to 0.000119381
Heightened Def Con from 0.000119385 to 0.000119386
Heightened Def Con from 0.000119528 to 0.000119529
Heightened Def Con from 0.000119529 to 0.000119532
Heightened Def Con from 0.000119541 to 0.000119542
Heightened Def Con from 0.000119542 to 0.000119544
Heightened Def Con from 0.000119544 to 0.000119544
Heightened Def Con from 0.000119544 to 0.000119549
Heightened Def Con from 0.000119552 to 0.000119554
Heightened Def Con from 0.000120453 to 0.000120455
Heightened Def Con from 0.000120455 to 0.000120458
Heightened Def Con from 0.000120458 to 0.000120458
Heightened Def Con from 0.000120458 to 0.00012046
Heightened Def Con from 0.000120462 to 0.000120462
Heightened Def Con from 0.000120462 to 0.000120465
Heightened Def Con from 0.000120468 to 0.00012047
Heightened Def Con from 0.000120471 to 0.000120472
Heightened Def Con from 0.000120473 to 0.000120474
Heightened Def Con from 0.000120475 to 0.000120476
Heightened Def Con from 0.000120477 to 0.000120478
Heightened Def Con from 0.000120479 to 0.000120482
Heightened Def Con from 0.000120484 to 0.000120487
Heightened Def Con from 0.000120488 to 0.000120488
Heightened Def Con from 0.000120488 to 0.000120489
Heightened Def Con from 0.00012049 to 0.000120491
Heightened Def Con from 0.000120492 to 0.000120493
Heightened Def Con from 0.000120493 to 0.000120494
Heightened Def Con from 0.000120494 to 0.000120495
Heightened Def Con from 0.000120495 +to 0.000120495
Heightened Def Con from 0.000120496 to 0.000120499
Heightened Def Con from 0.000120508 to 0.000120511
Heightened Def Con from 0.000120518 to 0.00012052
Heightened Def Con from 0.000121411 to 0.000121412
Heightened Def Con from 0.000121412 to 0.000121414
Heightened Def Con from 0.000121414 to 0.000121416
Heightened Def Con from 0.000121416 to 0.000121417
Heightened Def Con from 0.000121417 to 0.000121421
Heightened Def Con from 0.000121426 to 0.000121426
Heightened Def Con from 0.000121426 to 0.000121427
Heightened Def Con from 0.000121429 to 0.00012143
Heightened Def Con from 0.00012143 to 0.00012143
Heightened Def Con from 0.00012143 to 0.000121431
Heightened Def Con from 0.00012144 to 0.000121441
Heightened Def Con from 0.000121441 to 0.000121441
Heightened Def Con from 0.000121442 to 0.000121443
Heightened Def Con from 0.000121443 +to 0.000121443
Heightened Def Con from 0.000121443 to 0.000121443
Heightened Def Con from 0.000121443 to 0.000121444
Heightened Def Con from 0.000121445 to 0.000121445
Heightened Def Con from 0.000121457 to 0.000121458
Heightened Def Con from 0.000121459 to 0.000121459
Heightened Def Con from 0.000121459 to 0.000121461
Heightened Def Con from 0.000121461 to 0.000121461
Heightened Def Con from 0.000121462 to 0.000121462
Heightened Def Con from 0.000121462 to 0.000121462
Heightened Def Con from 0.000121462 to 0.000121462
Heightened Def Con from 0.00012147 to 0.000121471
Heightened Def Con from 0.000121471 to 0.000121471
Heightened Def Con from 0.000121471 to 0.000121473
Heightened Def Con from 0.000122585 to 0.000122587
Heightened Def Con from 0.000122595 to 0.000122596
Heightened Def Con from 0.000122596 to 0.000122597
Heightened Def Con from 0.000122597 to 0.000122599
Heightened Def Con from 0.0001226 to 0.0001226
Heightened Def Con from 0.0001226 to 0.0001226
Heightened Def Con from 0.000122601 to 0.000122602
Heightened Def Con from 0.000122604 to 0.000122609
Heightened Def Con from 0.000122614 to 0.000122614
Heightened Def Con from 0.000122615 to 0.000122618
Heightened Def Con from 0.000122619 to 0.000122622
Heightened Def Con from 0.000122628 to 0.000122629
Heightened Def Con from 0.000122641 to 0.000122644
Heightened Def Con from 0.000122652 to 0.000122653
Heightened Def Con from 0.000122654 to 0.000122654
Heightened Def Con from 0.000122656 to 0.000122659
Heightened Def Con from 0.000123277 to 0.000123277
Heightened Def Con from 0.000123277 to 0.00012328
Heightened Def Con from 0.00012328 to 0.000123281
Heightened Def Con from 0.000123282 to 0.000123283
Heightened Def Con from 0.000123284 to 0.000123291
Heightened Def Con from 0.000123315 to 0.000123318
Heightened Def Con from 0.00012341 to 0.000123413
Heightened Def Con from 0.000123591 to 0.000123591
Heightened Def Con from 0.000123591 to 0.000123593
Heightened Def Con from 0.000123593 to 0.000123593
Heightened Def Con from 0.000123594 to 0.000123594
Heightened Def Con from 0.000123594 to 0.000123595
Heightened Def Con from 0.000123599 to 0.000123599
Heightened Def Con from 0.000123599 to 0.000123599
Heightened Def Con from 0.000123599 to 0.000123602
Heightened Def Con from 0.000123602 to 0.000123604
Heightened Def Con from 0.000123606 to 0.000123606
Heightened Def Con from 0.000123606 to 0.000123607
Heightened Def Con from 0.000123608 to 0.000123611
Heightened Def Con from 0.000123616 to 0.000123617
Heightened Def Con from 0.000123618 to 0.000123619
Heightened Def Con from 0.000123619 to 0.000123622
Heightened Def Con from 0.00012363 to 0.000123633
Heightened Def Con from 0.000123633 to 0.000123636
Heightened Def Con from 0.000123649 to 0.000123649
Heightened Def Con from 0.000123652 to 0.000123653
Heightened Def Con from 0.000123654 to 0.000123655
Heightened Def Con from 0.000123655 to 0.000123655
Heightened Def Con from 0.000123655 to 0.000123656
Heightened Def Con from 0.000123856 to 0.000123858
Heightened Def Con from 0.000123858 to 0.000123858
Heightened Def Con from 0.000123858 to 0.000123859
Heightened Def Con from 0.00012386 to 0.000123863
Heightened Def Con from 0.000123863 to 0.000123865
Heightened Def Con from 0.000123866 to 0.000123867
Heightened Def Con from 0.000123868 to 0.000123868
Heightened Def Con from 0.000123868 to 0.000123873
Heightened Def Con from 0.000123875 to 0.000123879
Heightened Def Con from 0.000123911 to 0.000123912
Heightened Def Con from 0.000123926 to 0.000123927
Heightened Def Con from 0.000123928 to 0.00012393
Heightened Def Con from 0.000123933 to 0.000123934
Heightened Def Con from 0.000123934 to 0.000123936
Heightened Def Con from 0.00012476 to 0.00012476
Heightened Def Con from 0.00012476 to 0.000124761
Heightened Def Con from 0.000124763 to 0.000124763
Heightened Def Con from 0.000124763 to 0.000124763
Heightened Def Con from 0.000124763 to 0.000124765
Heightened Def Con from 0.000124765 to 0.000124765
Heightened Def Con from 0.000124765 to 0.000124766
Heightened Def Con from 0.000124774 to 0.000124777
Heightened Def Con from 0.000124783 to 0.000124783
Heightened Def Con from 0.000124799 to 0.000124799
Heightened Def Con from 0.0001248 to 0.000124802
Heightened Def Con from 0.000124802 to 0.000124804
Heightened Def Con from 0.000124804 to 0.000124807
Heightened Def Con from 0.000125693 to 0.000125693
Heightened Def Con from 0.000125693 to 0.000125697
Heightened Def Con from 0.000125699 to 0.0001257
Heightened Def Con from 0.000125706 to 0.00012571
Heightened Def Con from 0.00012571 to 0.000125711
Heightened Def Con from 0.000125714 to 0.000125717
Heightened Def Con from 0.000125742 to 0.000125744
Heightened Def Con from 0.000125745 to 0.000125747
Heightened Def Con from 0.000125747 to 0.00012575
Heightened Def Con from 0.000126893 to 0.000126893
Heightened Def Con from 0.000126893 to 0.000126894
Heightened Def Con from 0.000126894 to 0.000126896
Heightened Def Con from 0.000126899 to 0.000126899
Heightened Def Con from 0.000126899 to 0.000126899
Heightened Def Con from 0.000126899 to 0.0001269
Heightened Def Con from 0.000126905 to 0.000126908
Heightened Def Con from 0.000126908 to 0.000126908
Heightened Def Con from 0.000126908 to 0.000126911
Heightened Def Con from 0.000126912 to 0.000126913
Heightened Def Con from 0.000126913 to 0.000126913
Heightened Def Con from 0.000126913 to 0.000126916
Heightened Def Con from 0.000126916 to 0.000126918
Heightened Def Con from 0.000126922 to 0.000126922
Heightened Def Con from 0.000126922 to 0.000126923
Heightened Def Con from 0.000126923 to 0.000126923
Heightened Def Con from 0.000126925 to 0.000126927
Heightened Def Con from 0.000126927 to 0.000126927
Heightened Def Con from 0.000126927 to 0.000126928
Heightened Def Con from 0.000126928 to 0.000126928
Heightened Def Con from 0.000126937 to 0.00012694
Heightened Def Con from 0.000126941 to 0.000126944
Heightened Def Con from 0.000126945 to 0.000126945
Heightened Def Con from 0.000126945 to 0.000126945
Heightened Def Con from 0.000126945 to 0.000126947
Heightened Def Con from 0.00012695 to 0.00012695
Heightened Def Con from 0.00012695 to 0.000126953
Heightened Def Con from 0.000126954 to 0.000126954
Heightened Def Con from 0.000127581 to 0.000127581
Heightened Def Con from 0.000127581 to 0.000127584
Heightened Def Con from 0.000127585 to 0.000127587
Heightened Def Con from 0.000127587 to 0.000127588
Heightened Def Con from 0.000127588 to 0.000127588
Heightened Def Con from 0.000127588 to 0.000127588
Heightened Def Con from 0.000127602 to 0.000127603
Heightened Def Con from 0.000127606 to 0.00012761
Heightened Def Con from 0.000127615 to 0.000127615
Heightened Def Con from 0.000127615 to 0.000127615
Heightened Def Con from 0.000127615 to 0.000127615
Heightened Def Con from 0.000127615 to 0.000127616
Heightened Def Con from 0.000127619 to 0.000127622
Heightened Def Con from 0.000127666 to 0.000127669
Heightened Def Con from 0.000127848 to 0.000127848
Heightened Def Con from 0.000127848 to 0.000127849
Heightened Def Con from 0.00012785 to 0.000127851
Heightened Def Con from 0.000127852 to 0.000127852
Heightened Def Con from 0.000127852 to 0.000127855
Heightened Def Con from 0.000127856 to 0.000127859
Heightened Def Con from 0.00012786 to 0.00012786
Heightened Def Con from 0.000127869 to 0.000127869
Heightened Def Con from 0.000128011 to 0.000128013
Heightened Def Con from 0.000128014 to 0.000128017
Heightened Def Con from 0.000128017 to 0.00012802
Heightened Def Con from 0.000128023 to 0.000128026
Heightened Def Con from 0.000128179 to 0.000128179
Heightened Def Con from 0.00012818 to 0.000128181
Heightened Def Con from 0.000128181 to 0.000128181
Heightened Def Con from 0.000128181 to 0.000128181
Heightened Def Con from 0.000128182 to 0.000128183
Heightened Def Con from 0.000128183 to 0.000128184
Heightened Def Con from 0.000128184 to 0.000128184
Heightened Def Con from 0.000128184 to 0.000128184
Heightened Def Con from 0.000128184 to 0.000128187
Heightened Def Con from 0.000128187 to 0.000128189
Heightened Def Con from 0.00012819 to 0.000128191
Heightened Def Con from 0.000128192 to 0.000128192
Heightened Def Con from 0.000128192 to 0.000128197
Heightened Def Con from 0.000128199 to 0.000128199
Heightened Def Con from 0.000128199 to 0.000128199
Heightened Def Con from 0.000128199 to 0.0001282
Heightened Def Con from 0.000128222 to 0.000128225
Heightened Def Con from 0.00012824 to 0.000128241
Heightened Def Con from 0.000128242 to 0.000128245
Heightened Def Con from 0.000129053 to 0.000129057
Heightened Def Con from 0.000129058 to 0.000129059
Heightened Def Con from 0.000129059 to 0.00012906
Heightened Def Con from 0.000129064 to 0.000129064
Heightened Def Con from 0.000129064 to 0.000129066
Heightened Def Con from 0.000129066 to 0.000129066
Heightened Def Con from 0.000129075 to 0.000129076
Heightened Def Con from 0.000129076 to 0.000129079
Heightened Def Con from 0.000129804 to 0.000129805
Heightened Def Con from 0.000129809 to 0.000129809
Heightened Def Con from 0.000129813 to 0.000129815
Heightened Def Con from 0.000129817 to 0.00012982
Heightened Def Con from 0.000129966 to 0.000129966
Heightened Def Con from 0.000129966 to 0.000129966
Heightened Def Con from 0.000129966 to 0.000129968
Heightened Def Con from 0.000129968 to 0.000129968
Heightened Def Con from 0.000129968 to 0.00012997
Heightened Def Con from 0.000129983 to 0.000129987
Heightened Def Con from 0.000129987 to 0.00012999
Heightened Def Con from 0.00012999 to 0.00012999
Heightened Def Con from 0.00012999 to 0.000129991
Heightened Def Con from 0.000130009 to 0.00013001
Heightened Def Con from 0.000130011 to 0.000130011
Heightened Def Con from 0.000130011 to 0.000130011
Heightened Def Con from 0.000130011 to 0.000130014
Heightened Def Con from 0.000130015 ++to 0.000130015
Heightened Def Con from 0.000130015 +++to 0.000130015
Heightened Def Con from 0.000130015 +to 0.000130015
Heightened Def Con from 0.000130015 to 0.000130016
Heightened Def Con from 0.00013002 to 0.000130022
Heightened Def Con from 0.000130024 to 0.000130027
Heightened Def Con from 0.000131219 to 0.000131219
Heightened Def Con from 0.000131219 +to 0.000131219
Heightened Def Con from 0.000131219 to 0.00013122
Heightened Def Con from 0.00013122 to 0.00013122
Heightened Def Con from 0.00013122 to 0.00013122
Heightened Def Con from 0.00013122 to 0.000131221
Heightened Def Con from 0.000131221 to 0.000131222
Heightened Def Con from 0.000131223 to 0.000131225
Heightened Def Con from 0.000131225 to 0.000131225
Heightened Def Con from 0.000131225 to 0.000131226
Heightened Def Con from 0.000131226 to 0.000131226
Heightened Def Con from 0.000131227 to 0.000131227
Heightened Def Con from 0.000131227 to 0.000131228
Heightened Def Con from 0.000131228 to 0.000131228
Heightened Def Con from 0.000131228 to 0.000131229
Heightened Def Con from 0.000131229 to 0.000131231
Heightened Def Con from 0.000131231 to 0.000131233
Heightened Def Con from 0.000131233 to 0.000131233
Heightened Def Con from 0.000131233 +to 0.000131234
Heightened Def Con from 0.000131234 to 0.000131234
Heightened Def Con from 0.000131234 to 0.000131234
Heightened Def Con from 0.000131234 to 0.000131235
Heightened Def Con from 0.000131237 to 0.00013124
Heightened Def Con from 0.00013124 to 0.000131244
Heightened Def Con from 0.000131244 to 0.000131246
Heightened Def Con from 0.0001319 to 0.000131901
Heightened Def Con from 0.000131901 to 0.000131903
Heightened Def Con from 0.000131916 to 0.000131917
Heightened Def Con from 0.000131925 to 0.000131925
Heightened Def Con from 0.000131925 to 0.000131925
Heightened Def Con from 0.000131926 to 0.000131929
Heightened Def Con from 0.00013193 to 0.000131931
Heightened Def Con from 0.000131937 to 0.000131939
Heightened Def Con from 0.000131961 to 0.000131962
Heightened Def Con from 0.000131962 to 0.000131963
Heightened Def Con from 0.000131977 to 0.00013198
Heightened Def Con from 0.000131981 to 0.000131981
Heightened Def Con from 0.000132146 to 0.000132146
Heightened Def Con from 0.000132147 to 0.00013215
Heightened Def Con from 0.000132156 to 0.00013216
Heightened Def Con from 0.000132161 to 0.000132161
Heightened Def Con from 0.000132161 to 0.000132162
Heightened Def Con from 0.000132164 to 0.000132167
Heightened Def Con from 0.000132172 to 0.000132172
Heightened Def Con from 0.000132173 to 0.000132175
Heightened Def Con from 0.000132175 to 0.000132176
Heightened Def Con from 0.00013218 to 0.000132181
Heightened Def Con from 0.000132181 to 0.000132182
Heightened Def Con from 0.000132195 to 0.000132196
Heightened Def Con from 0.000132196 to 0.000132196
Heightened Def Con from 0.000132197 to 0.000132197
Heightened Def Con from 0.000132197 to 0.000132197
Heightened Def Con from 0.000132487 to 0.000132489
Heightened Def Con from 0.000132499 to 0.000132501
Heightened Def Con from 0.000132502 to 0.000132503
Heightened Def Con from 0.00013251 to 0.000132513
Heightened Def Con from 0.000132513 to 0.000132513
Heightened Def Con from 0.000132513 to 0.000132517
Heightened Def Con from 0.000132523 to 0.000132526
Heightened Def Con from 0.000133341 to 0.000133343
Heightened Def Con from 0.000133344 to 0.000133346
Heightened Def Con from 0.00013337 to 0.000133371
Heightened Def Con from 0.000133392 to 0.000133396
Heightened Def Con from 0.000133399 to 0.000133402
Heightened Def Con from 0.000133403 to 0.000133406
Heightened Def Con from 0.000133409 to 0.000133417
Heightened Def Con from 0.000134299 to 0.000134303
Heightened Def Con from 0.000134303 to 0.000134305
Heightened Def Con from 0.000134308 to 0.000134311
Heightened Def Con from 0.000134313 to 0.000134315
Heightened Def Con from 0.000134317 to 0.000134318
Heightened Def Con from 0.000134321 to 0.000134321
Heightened Def Con from 0.000134321 to 0.000134322
Heightened Def Con from 0.000134365 to 0.000134367
Heightened Def Con from 0.000135583 to 0.000135584
Heightened Def Con from 0.000135584 to 0.000135584
Heightened Def Con from 0.000135584 to 0.000135585
Heightened Def Con from 0.000135587 to 0.000135589
Heightened Def Con from 0.000135591 to 0.000135594
Heightened Def Con from 0.000135594 to 0.000135596
Heightened Def Con from 0.000135596 to 0.000135596
Heightened Def Con from 0.000135598 to 0.000135611
Heightened Def Con from 0.000135616 to 0.000135618
Heightened Def Con from 0.000135638 to 0.000135641
Heightened Def Con from 0.000136262 to 0.000136262
Heightened Def Con from 0.000136262 to 0.000136265
Heightened Def Con from 0.000136266 to 0.000136269
Heightened Def Con from 0.000136272 to 0.000136272
Heightened Def Con from 0.000136275 to 0.000136279
Heightened Def Con from 0.000136279 to 0.000136282
Heightened Def Con from 0.000136333 to 0.000136336
Heightened Def Con from 0.000136484 to 0.000136485
Heightened Def Con from 0.000136495 to 0.000136499
Heightened Def Con from 0.0001365 to 0.000136501
Heightened Def Con from 0.00013651 to 0.000136513
Heightened Def Con from 0.000136513 to 0.000136514
Heightened Def Con from 0.00013652 to 0.000136521
Heightened Def Con from 0.000136521 to 0.000136522
Heightened Def Con from 0.000136531 to 0.000136534
Heightened Def Con from 0.000136547 to 0.00013655
Heightened Def Con from 0.000136838 to 0.000136841
Heightened Def Con from 0.000136843 to 0.000136847
Heightened Def Con from 0.00013685 to 0.00013686
Heightened Def Con from 0.000136913 to 0.000136914
Heightened Def Con from 0.000136917 to 0.000136918
Heightened Def Con from 0.000137782 to 0.000137784
Heightened Def Con from 0.000137785 to 0.000137787
Heightened Def Con from 0.000137787 to 0.000137787
Heightened Def Con from 0.000137787 to 0.000137792
Heightened Def Con from 0.000137792 to 0.000137795
Heightened Def Con from 0.000137802 to 0.000137804
Heightened Def Con from 0.000137837 to 0.00013784
Heightened Def Con from 0.000138669 to 0.00013867
Heightened Def Con from 0.00013867 to 0.000138671
Heightened Def Con from 0.000138671 to 0.000138672
Heightened Def Con from 0.000138673 to 0.000138673
Heightened Def Con from 0.000138674 to 0.000138677
Heightened Def Con from 0.000138681 to 0.000138682
Heightened Def Con from 0.000138683 to 0.000138688
Heightened Def Con from 0.000138689 to 0.000138689
Heightened Def Con from 0.000138689 to 0.00013869
Heightened Def Con from 0.000140004 to 0.000140006
Heightened Def Con from 0.000140011 to 0.000140012
Heightened Def Con from 0.000140013 to 0.000140013
Heightened Def Con from 0.000140013 to 0.000140014
Heightened Def Con from 0.000140014 to 0.000140015
Heightened Def Con from 0.000140019 to 0.00014002
Heightened Def Con from 0.000140023 to 0.000140028
Heightened Def Con from 0.000140559 to 0.000140559
Heightened Def Con from 0.000140559 to 0.000140562
Heightened Def Con from 0.000140573 to 0.000140573
Heightened Def Con from 0.000140573 to 0.000140576
Heightened Def Con from 0.000140576 to 0.000140576
Heightened Def Con from 0.000140576 to 0.000140578
Heightened Def Con from 0.000140578 to 0.000140585
Heightened Def Con from 0.000140585 to 0.000140586
Heightened Def Con from 0.000140586 to 0.000140593
Heightened Def Con from 0.000140594 to 0.000140596
Heightened Def Con from 0.000140911 to 0.000140911
Heightened Def Con from 0.000140917 to 0.00014092
Heightened Def Con from 0.000140927 to 0.000140927
Heightened Def Con from 0.000140927 to 0.000140929
Heightened Def Con from 0.00014093 to 0.000140933
Heightened Def Con from 0.000140955 to 0.000140955
Heightened Def Con from 0.000140959 to 0.000140961
Heightened Def Con from 0.000140982 to 0.000140984
Heightened Def Con from 0.000140989 to 0.000140992
Heightened Def Con from 0.000141154 to 0.000141155
Heightened Def Con from 0.000141156 to 0.000141159
Heightened Def Con from 0.000141159 to 0.000141162
Heightened Def Con from 0.000141165 to 0.000141169
Heightened Def Con from 0.000141169 to 0.000141171
Heightened Def Con from 0.000141172 to 0.000141174
Heightened Def Con from 0.000141184 to 0.000141185
Heightened Def Con from 0.00014119 to 0.000141191
Heightened Def Con from 0.000141191 to 0.000141191
Heightened Def Con from 0.000141193 to 0.000141196
Heightened Def Con from 0.00014122 to 0.000141222
Heightened Def Con from 0.00014123 to 0.00014123
Heightened Def Con from 0.000142192 to 0.000142192
Heightened Def Con from 0.000142203 to 0.000142203
Heightened Def Con from 0.00014221 to 0.000142213
Heightened Def Con from 0.000142219 to 0.000142221
Heightened Def Con from 0.000142222 to 0.000142222
Heightened Def Con from 0.000142222 to 0.000142222
Heightened Def Con from 0.000142225 to 0.000142227
Heightened Def Con from 0.000142232 to 0.000142233
Heightened Def Con from 0.000142909 to 0.000142911
Heightened Def Con from 0.000143065 to 0.000143067
Heightened Def Con from 0.000143067 to 0.000143072
Heightened Def Con from 0.000143075 to 0.000143078
Heightened Def Con from 0.000143081 to 0.000143084
Heightened Def Con from 0.000143086 to 0.000143087
Heightened Def Con from 0.000143087 to 0.000143088
Heightened Def Con from 0.000143089 to 0.000143092
Heightened Def Con from 0.00014439 to 0.000144393
Heightened Def Con from 0.000144396 to 0.000144399
Heightened Def Con from 0.000144401 to 0.000144401
Heightened Def Con from 0.000144402 to 0.000144409
Heightened Def Con from 0.00014441 to 0.000144415
Heightened Def Con from 0.000144419 to 0.00014442
Heightened Def Con from 0.000144895 to 0.000144897
Heightened Def Con from 0.000144899 to 0.000144902
Heightened Def Con from 0.000144902 to 0.000144902
Heightened Def Con from 0.000144903 to 0.000144907
Heightened Def Con from 0.000144909 to 0.000144911
Heightened Def Con from 0.000144912 to 0.000144912
Heightened Def Con from 0.00014493 to 0.000144933
Heightened Def Con from 0.000145098 to 0.000145098
Heightened Def Con from 0.000145098 to 0.000145101
Heightened Def Con from 0.000145101 to 0.000145102
Heightened Def Con from 0.000145103 to 0.000145104
Heightened Def Con from 0.000145104 to 0.000145107
Heightened Def Con from 0.000145109 to 0.000145111
Heightened Def Con from 0.000145112 to 0.000145113
Heightened Def Con from 0.000145113 to 0.000145113
Heightened Def Con from 0.000145115 to 0.000145117
Heightened Def Con from 0.000145265 to 0.000145266
Heightened Def Con from 0.000145271 to 0.000145274
Heightened Def Con from 0.000145279 to 0.000145279
Heightened Def Con from 0.00014528 to 0.000145281
Heightened Def Con from 0.000145281 to 0.000145281
Heightened Def Con from 0.000145282 to 0.000145287
Heightened Def Con from 0.000145337 to 0.000145338
Heightened Def Con from 0.000145338 to 0.000145338
Heightened Def Con from 0.000145338 to 0.000145339
Heightened Def Con from 0.00014534 to 0.000145342
Heightened Def Con from 0.000145354 to 0.000145356
Heightened Def Con from 0.000145476 to 0.000145477
Heightened Def Con from 0.00014549 to 0.000145492
Heightened Def Con from 0.000146597 to 0.000146597
Heightened Def Con from 0.000146602 to 0.000146604
Heightened Def Con from 0.000146608 to 0.000146609
Heightened Def Con from 0.000146611 to 0.000146611
Heightened Def Con from 0.000146613 to 0.000146616
Heightened Def Con from 0.000146617 to 0.000146618
Heightened Def Con from 0.00014662 to 0.000146627
Heightened Def Con from 0.000146631 to 0.000146632
Heightened Def Con from 0.000146662 to 0.000146662
Heightened Def Con from 0.000147298 to 0.0001473
Heightened Def Con from 0.000147302 to 0.000147303
Heightened Def Con from 0.000147304 to 0.000147304
Heightened Def Con from 0.000147304 to 0.000147304
Heightened Def Con from 0.000147304 to 0.000147304
Heightened Def Con from 0.000147482 to 0.000147484
Heightened Def Con from 0.000147485 to 0.000147486
Heightened Def Con from 0.000147486 to 0.000147487
Heightened Def Con from 0.00014749 to 0.000147493
Heightened Def Con from 0.000147494 to 0.000147496
Heightened Def Con from 0.000147541 to 0.000147541
Heightened Def Con from 0.000147541 to 0.000147543
Heightened Def Con from 0.000148823 to 0.000148824
Heightened Def Con from 0.000148824 to 0.000148825
Heightened Def Con from 0.000148826 to 0.000148828
Heightened Def Con from 0.000148829 to 0.000148829
Heightened Def Con from 0.00014883 to 0.000148832
Heightened Def Con from 0.000148835 to 0.000148835
Heightened Def Con from 0.000148835 to 0.000148843
Heightened Def Con from 0.000148855 to 0.000148857
Heightened Def Con from 0.000148893 to 0.000148893
Heightened Def Con from 0.000148894 to 0.000148896
Heightened Def Con from 0.000149211 to 0.000149212
Heightened Def Con from 0.000149214 to 0.000149215
Heightened Def Con from 0.000149227 to 0.00014923
Heightened Def Con from 0.000149516 to 0.000149516
Heightened Def Con from 0.000149518 to 0.000149521
Heightened Def Con from 0.00014962 to 0.000149623
Heightened Def Con from 0.000149689 to 0.000149689
Heightened Def Con from 0.000149689 to 0.00014969
Heightened Def Con from 0.000149693 to 0.000149696
Heightened Def Con from 0.000149699 to 0.000149703
Heightened Def Con from 0.000149706 to 0.000149707
Heightened Def Con from 0.000149737 to 0.000149737
Heightened Def Con from 0.000149749 to 0.000149752
Heightened Def Con from 0.000149783 to 0.000149784
Heightened Def Con from 0.000149787 to 0.000149788
Heightened Def Con from 0.000149789 to 0.000149791
Heightened Def Con from 0.000149796 to 0.000149797
Heightened Def Con from 0.0001498 to 0.0001498
[...]
Heightened Def Con from 0.00215467 to 0.00215468
Heightened Def Con from 0.00215468 to 0.00215468
Heightened Def Con from 0.00215468 to 0.00215468
Heightened Def Con from 0.00215468 to 0.00215468
Heightened Def Con from 0.00215469 to 0.00215469
Heightened Def Con from 0.00215469 to 0.00215469
Heightened Def Con from 0.00215469 to 0.0021547
Heightened Def Con from 0.0021547 to 0.0021547
Heightened Def Con from 0.0021547 to 0.0021547
Heightened Def Con from 0.00215471 to 0.00215471
Heightened Def Con from 0.00215471 to 0.00215471
Heightened Def Con from 0.00215508 to 0.00215508
Heightened Def Con from 0.00215509 to 0.00215509
Heightened Def Con from 0.00215509 to 0.00215509
Heightened Def Con from 0.00215524 to 0.00215524
Heightened Def Con from 0.00215524 to 0.00215524
Heightened Def Con from 0.00215525 to 0.00215525
Heightened Def Con from 0.00215526 to 0.00215526
Heightened Def Con from 0.00215526 to 0.00215526
Heightened Def Con from 0.00215526 to 0.00215526
Heightened Def Con from 0.00215526 to 0.00215526
Heightened Def Con from 0.00215526 to 0.00215527
Heightened Def Con from 0.0021553 to 0.00215531
Heightened Def Con from 0.00215531 to 0.00215531
Heightened Def Con from 0.00215531 to 0.00215531
Heightened Def Con from 0.00215532 to 0.00215532
Heightened Def Con from 0.00215532 to 0.00215533
Heightened Def Con from 0.00215533 to 0.00215533
Heightened Def Con from 0.00215533 to 0.00215533
Heightened Def Con from 0.00215534 to 0.00215534
Heightened Def Con from 0.00215534 to 0.00215534
Heightened Def Con from 0.00215584 to 0.00215584
Heightened Def Con from 0.00215584 to 0.00215585
Heightened Def Con from 0.00215585 to 0.00215585
Heightened Def Con from 0.00215601 to 0.00215601
Heightened Def Con from 0.00215601 to 0.00215602
Heightened Def Con from 0.00215602 to 0.00215602
Heightened Def Con from 0.00215602 to 0.00215602
Heightened Def Con from 0.00215603 to 0.00215603
Heightened Def Con from 0.00215603 to 0.00215603
Heightened Def Con from 0.00215604 to 0.00215604
Heightened Def Con from 0.00215606 to 0.00215606
Heightened Def Con from 0.00215606 to 0.00215606
Heightened Def Con from 0.00215606 to 0.00215606
Heightened Def Con from 0.00215606 to 0.00215606
Heightened Def Con from 0.00215606 to 0.00215607
Heightened Def Con from 0.00215607 to 0.00215607
Heightened Def Con from 0.00215833 to 0.00215833
Heightened Def Con from 0.00215833 to 0.00215833
Heightened Def Con from 0.00215833 to 0.00215834
Heightened Def Con from 0.00215834 to 0.00215834
Heightened Def Con from 0.00215834 to 0.00215834
Heightened Def Con from 0.00215834 to 0.00215834
Heightened Def Con from 0.00215835 to 0.00215835
Heightened Def Con from 0.00215835 to 0.00215835
Heightened Def Con from 0.00215835 to 0.00215835
Heightened Def Con from 0.00215835 to 0.00215835
Heightened Def Con from 0.00215835 to 0.00215835
Heightened Def Con from 0.00215835 to 0.00215836
Heightened Def Con from 0.00215836 to 0.00215836
Heightened Def Con from 0.0021584 to 0.0021584
Heightened Def Con from 0.00215841 to 0.00215841
Heightened Def Con from 0.00215841 to 0.00215842
Heightened Def Con from 0.00215885 to 0.00215885
Heightened Def Con from 0.00215887 to 0.00215887
Heightened Def Con from 0.00215887 to 0.00215887
Heightened Def Con from 0.00215896 to 0.00215896
Heightened Def Con from 0.00215896 to 0.00215896
Heightened Def Con from 0.00215898 to 0.00215898
Heightened Def Con from 0.00215898 to 0.00215898
Heightened Def Con from 0.00215898 to 0.00215898
Heightened Def Con from 0.00215898 to 0.00215898
Heightened Def Con from 0.00215898 to 0.00215899
Heightened Def Con from 0.00215899 to 0.00215899
Heightened Def Con from 0.00215899 to 0.00215899
Heightened Def Con from 0.00215899 to 0.00215899
Heightened Def Con from 0.00215899 to 0.00215899
Heightened Def Con from 0.00215899 to 0.00215899
Heightened Def Con from 0.002159 to 0.002159
Heightened Def Con from 0.00215901 to 0.00215901
Heightened Def Con from 0.00215901 to 0.00215901
Heightened Def Con from 0.00215901 to 0.00215901
Heightened Def Con from 0.00215902 to 0.00215902
Heightened Def Con from 0.00215903 to 0.00215903
Heightened Def Con from 0.00215903 to 0.00215904
Heightened Def Con from 0.00215904 to 0.00215904
Heightened Def Con from 0.00215906 to 0.00215907
Heightened Def Con from 0.00215907 to 0.00215907
Heightened Def Con from 0.00215907 to 0.00215907
Heightened Def Con from 0.00215907 to 0.00215907
Heightened Def Con from 0.00215955 to 0.00215955
Heightened Def Con from 0.00215955 to 0.00215956
Heightened Def Con from 0.00215957 to 0.00215957
Heightened Def Con from 0.00215957 to 0.00215957
Heightened Def Con from 0.00215957 to 0.00215957
Heightened Def Con from 0.00215957 to 0.00215957
Heightened Def Con from 0.00215958 to 0.00215959
Heightened Def Con from 0.00215959 to 0.00215959
Heightened Def Con from 0.00215964 to 0.00215964
Heightened Def Con from 0.00216136 to 0.00216136
Heightened Def Con from 0.00216136 to 0.00216137
Heightened Def Con from 0.00216137 to 0.00216137
Heightened Def Con from 0.00216137 to 0.00216137
Heightened Def Con from 0.00216138 to 0.00216138
Heightened Def Con from 0.00216138 to 0.00216138
Heightened Def Con from 0.00216139 to 0.00216139
Heightened Def Con from 0.00216139 to 0.00216139
Heightened Def Con from 0.00216139 to 0.00216139
Heightened Def Con from 0.00216141 to 0.00216141
Heightened Def Con from 0.00216141 to 0.00216141
Heightened Def Con from 0.00216142 to 0.00216142
Heightened Def Con from 0.00216143 to 0.00216143
Heightened Def Con from 0.00216144 to 0.00216144
Heightened Def Con from 0.00216144 to 0.00216144
Heightened Def Con from 0.00216144 to 0.00216144
Heightened Def Con from 0.00216193 to 0.00216193
Heightened Def Con from 0.00216207 to 0.00216207
Heightened Def Con from 0.00216208 to 0.00216208
Heightened Def Con from 0.00216208 to 0.00216208
Heightened Def Con from 0.00216208 to 0.00216208
Heightened Def Con from 0.00216208 to 0.00216209
Heightened Def Con from 0.00216209 +to 0.00216209
Heightened Def Con from 0.00216209 to 0.00216209
Heightened Def Con from 0.00216209 to 0.00216209
Heightened Def Con from 0.00216211 to 0.00216211
Heightened Def Con from 0.00216211 to 0.00216211
Heightened Def Con from 0.00216212 to 0.00216212
Heightened Def Con from 0.00216213 to 0.00216214
Heightened Def Con from 0.0021633 to 0.0021633
Heightened Def Con from 0.0021633 to 0.0021633
Heightened Def Con from 0.0021633 to 0.0021633
Heightened Def Con from 0.0021633 to 0.0021633
Heightened Def Con from 0.0021633 to 0.00216331
Heightened Def Con from 0.00216331 to 0.00216331
Heightened Def Con from 0.00216331 to 0.00216332
Heightened Def Con from 0.00216332 to 0.00216332
Heightened Def Con from 0.00216332 to 0.00216332
Heightened Def Con from 0.00216332 to 0.00216332
Heightened Def Con from 0.00216332 to 0.00216332
Heightened Def Con from 0.00216332 to 0.00216332
Heightened Def Con from 0.00216332 to 0.00216332
Heightened Def Con from 0.00216333 to 0.00216333
Heightened Def Con from 0.00216333 to 0.00216333
Heightened Def Con from 0.00216333 to 0.00216333
Heightened Def Con from 0.00216333 to 0.00216334
Heightened Def Con from 0.00216334 to 0.00216334
Heightened Def Con from 0.00216334 to 0.00216334
Heightened Def Con from 0.00216337 to 0.00216337
Heightened Def Con from 0.00216373 to 0.00216373
Heightened Def Con from 0.00216373 to 0.00216373
Heightened Def Con from 0.00216389 to 0.00216389
Heightened Def Con from 0.0021639 to 0.0021639
Heightened Def Con from 0.0021639 to 0.0021639
Heightened Def Con from 0.0021639 to 0.00216391
Heightened Def Con from 0.00216391 to 0.00216391
Heightened Def Con from 0.00216392 to 0.00216392
Heightened Def Con from 0.00216393 to 0.00216393
Heightened Def Con from 0.00216394 to 0.00216394
Heightened Def Con from 0.00216394 to 0.00216395
Heightened Def Con from 0.00216396 to 0.00216396
Heightened Def Con from 0.00216442 to 0.00216443
Heightened Def Con from 0.00216443 to 0.00216443
Heightened Def Con from 0.00216443 to 0.00216443
Heightened Def Con from 0.00216443 to 0.00216443
Heightened Def Con from 0.00216443 to 0.00216443
Heightened Def Con from 0.00216443 to 0.00216443
Heightened Def Con from 0.00216443 to 0.00216443
Heightened Def Con from 0.00216443 to 0.00216444
Heightened Def Con from 0.00216444 to 0.00216444
Heightened Def Con from 0.00216445 to 0.00216445
Heightened Def Con from 0.00216445 to 0.00216445
Heightened Def Con from 0.00216445 to 0.00216445
Heightened Def Con from 0.00216445 to 0.00216445
Heightened Def Con from 0.00216446 to 0.00216446
Heightened Def Con from 0.00216447 to 0.00216448
Heightened Def Con from 0.00216448 to 0.00216448
Heightened Def Con from 0.00216448 to 0.00216448
Heightened Def Con from 0.0021645 to 0.0021645
Heightened Def Con from 0.0021645 to 0.00216451
Heightened Def Con from 0.00216509 to 0.00216509
Heightened Def Con from 0.00216512 to 0.00216512
Heightened Def Con from 0.00216512 to 0.00216513
Heightened Def Con from 0.00216513 to 0.00216513
Heightened Def Con from 0.00216513 to 0.00216513
Heightened Def Con from 0.00216514 to 0.00216514
Heightened Def Con from 0.00216514 to 0.00216514
Heightened Def Con from 0.00216514 to 0.00216515
Heightened Def Con from 0.00216515 to 0.00216515
Heightened Def Con from 0.00216516 to 0.00216516
Heightened Def Con from 0.00216517 to 0.00216517
Heightened Def Con from 0.00216518 to 0.00216518
Heightened Def Con from 0.00216518 to 0.00216519
Heightened Def Con from 0.00216519 to 0.00216519
Heightened Def Con from 0.00216743 to 0.00216743
Heightened Def Con from 0.00216743 to 0.00216744
Heightened Def Con from 0.00216747 to 0.00216747
Heightened Def Con from 0.00216748 to 0.00216748
Heightened Def Con from 0.00216748 to 0.00216748
Heightened Def Con from 0.00216748 to 0.00216749
Heightened Def Con from 0.00216749 to 0.00216749
Heightened Def Con from 0.00216749 to 0.00216749
Heightened Def Con from 0.00216749 to 0.0021675
Heightened Def Con from 0.0021675 to 0.0021675
Heightened Def Con from 0.0021675 to 0.0021675
Heightened Def Con from 0.0021675 to 0.0021675
Heightened Def Con from 0.0021675 to 0.0021675
Heightened Def Con from 0.0021675 to 0.0021675
Heightened Def Con from 0.0021675 to 0.00216751
Heightened Def Con from 0.00216752 to 0.00216752
Heightened Def Con from 0.00216752 to 0.00216752
Heightened Def Con from 0.00216761 to 0.00216761
Heightened Def Con from 0.00216762 to 0.00216763
Heightened Def Con from 0.00216764 to 0.00216764
Heightened Def Con from 0.00216764 to 0.00216764
Heightened Def Con from 0.00216764 to 0.00216765
Heightened Def Con from 0.00216765 to 0.00216765
Heightened Def Con from 0.00216766 to 0.00216766
Heightened Def Con from 0.00216768 to 0.00216768
Heightened Def Con from 0.00216768 to 0.00216768
Heightened Def Con from 0.00216769 to 0.00216769
Heightened Def Con from 0.00216769 to 0.00216769
Heightened Def Con from 0.00216769 to 0.00216769
Heightened Def Con from 0.00216801 to 0.00216801
Heightened Def Con from 0.00216801 to 0.00216801
Heightened Def Con from 0.00216801 to 0.00216801
Heightened Def Con from 0.00216801 to 0.00216801
Heightened Def Con from 0.00216802 to 0.00216802
Heightened Def Con from 0.00216803 to 0.00216803
Heightened Def Con from 0.00216803 to 0.00216803
Heightened Def Con from 0.00216804 to 0.00216804
Heightened Def Con from 0.00216804 to 0.00216804
Heightened Def Con from 0.00216818 to 0.00216818
Heightened Def Con from 0.00216818 to 0.00216818
Heightened Def Con from 0.00216818 to 0.00216818
Heightened Def Con from 0.00216818 to 0.00216819
Heightened Def Con from 0.00216819 to 0.00216819
Heightened Def Con from 0.00216819 to 0.00216819
Heightened Def Con from 0.00216819 to 0.00216819
Heightened Def Con from 0.0021682 to 0.0021682
Heightened Def Con from 0.0021682 to 0.0021682
Heightened Def Con from 0.00216821 to 0.00216821
Heightened Def Con from 0.00216821 to 0.00216821
Heightened Def Con from 0.00216821 to 0.00216821
Heightened Def Con from 0.00216821 to 0.00216821
Heightened Def Con from 0.00216821 to 0.00216821
Heightened Def Con from 0.00216821 to 0.00216821
Heightened Def Con from 0.00216822 to 0.00216822
Heightened Def Con from 0.00216822 to 0.00216823
Heightened Def Con from 0.00216823 to 0.00216823
Heightened Def Con from 0.00216827 to 0.00216827
Heightened Def Con from 0.00216829 to 0.00216829
Heightened Def Con from 0.00217051 to 0.00217051
Heightened Def Con from 0.00217051 to 0.00217051
Heightened Def Con from 0.00217052 to 0.00217052
Heightened Def Con from 0.00217052 to 0.00217053
Heightened Def Con from 0.00217053 to 0.00217053
Heightened Def Con from 0.00217053 to 0.00217054
Heightened Def Con from 0.00217054 to 0.00217054
Heightened Def Con from 0.00217054 to 0.00217054
Heightened Def Con from 0.00217054 to 0.00217054
Heightened Def Con from 0.00217055 to 0.00217055
Heightened Def Con from 0.00217055 to 0.00217055
Heightened Def Con from 0.00217056 to 0.00217056
Heightened Def Con from 0.00217056 to 0.00217056
Heightened Def Con from 0.00217057 to 0.00217057
Heightened Def Con from 0.00217057 to 0.00217057
Heightened Def Con from 0.00217105 to 0.00217105
Heightened Def Con from 0.00217105 to 0.00217105
Heightened Def Con from 0.00217121 to 0.00217121
Heightened Def Con from 0.00217121 to 0.00217121
Heightened Def Con from 0.00217121 to 0.00217121
Heightened Def Con from 0.00217121 to 0.00217122
Heightened Def Con from 0.00217122 to 0.00217122
Heightened Def Con from 0.00217122 to 0.00217122
Heightened Def Con from 0.00217122 to 0.00217123
Heightened Def Con from 0.00217123 to 0.00217123
Heightened Def Con from 0.00217123 to 0.00217123
Heightened Def Con from 0.00217123 to 0.00217123
Heightened Def Con from 0.00217123 to 0.00217123
Heightened Def Con from 0.00217123 to 0.00217123
Heightened Def Con from 0.00217123 to 0.00217123
Heightened Def Con from 0.00217123 to 0.00217123
Heightened Def Con from 0.00217123 to 0.00217124
Heightened Def Con from 0.00217124 to 0.00217124
Heightened Def Con from 0.00217124 to 0.00217124
Heightened Def Con from 0.00217124 to 0.00217125
Heightened Def Con from 0.00217125 to 0.00217125
Heightened Def Con from 0.00217125 to 0.00217126
Heightened Def Con from 0.00217126 to 0.00217126
Heightened Def Con from 0.00217126 to 0.00217126
Heightened Def Con from 0.00217127 to 0.00217127
Heightened Def Con from 0.00217193 to 0.00217193
Heightened Def Con from 0.00217193 to 0.00217194
Heightened Def Con from 0.00217194 to 0.00217194
Heightened Def Con from 0.00217194 to 0.00217194
Heightened Def Con from 0.00217194 to 0.00217195
Heightened Def Con from 0.00217195 to 0.00217195
Heightened Def Con from 0.00217195 to 0.00217195
Heightened Def Con from 0.00217195 to 0.00217196
Heightened Def Con from 0.00217196 to 0.00217196
Heightened Def Con from 0.00217196 to 0.00217196
Heightened Def Con from 0.00217196 to 0.00217197
Heightened Def Con from 0.00217197 to 0.00217197
Heightened Def Con from 0.00217199 to 0.002172
Heightened Def Con from 0.002172 to 0.002172
Heightened Def Con from 0.00217237 to 0.00217237
Heightened Def Con from 0.00217237 to 0.00217237
Heightened Def Con from 0.00217251 to 0.00217251
Heightened Def Con from 0.00217251 to 0.00217251
Heightened Def Con from 0.00217251 to 0.00217251
Heightened Def Con from 0.00217251 to 0.00217251
Heightened Def Con from 0.00217252 to 0.00217252
Heightened Def Con from 0.00217252 to 0.00217252
Heightened Def Con from 0.00217252 to 0.00217252
Heightened Def Con from 0.00217252 to 0.00217253
Heightened Def Con from 0.00217253 to 0.00217253
Heightened Def Con from 0.00217254 to 0.00217254
Heightened Def Con from 0.00217255 to 0.00217255
Heightened Def Con from 0.00217354 to 0.00217354
Heightened Def Con from 0.00217354 to 0.00217355
Heightened Def Con from 0.00217355 to 0.00217355
Heightened Def Con from 0.00217355 to 0.00217355
Heightened Def Con from 0.00217356 to 0.00217356
Heightened Def Con from 0.00217356 to 0.00217356
Heightened Def Con from 0.00217357 to 0.00217357
Heightened Def Con from 0.00217357 to 0.00217357
Heightened Def Con from 0.0021736 to 0.0021736
Heightened Def Con from 0.00217406 to 0.00217407
Heightened Def Con from 0.00217407 to 0.00217407
Heightened Def Con from 0.00217407 to 0.00217407
Heightened Def Con from 0.00217422 to 0.00217422
Heightened Def Con from 0.00217422 +to 0.00217422
Heightened Def Con from 0.00217422 to 0.00217423
Heightened Def Con from 0.00217423 to 0.00217423
Heightened Def Con from 0.00217423 to 0.00217423
Heightened Def Con from 0.00217424 to 0.00217424
Heightened Def Con from 0.00217424 to 0.00217424
Heightened Def Con from 0.00217424 to 0.00217424
Heightened Def Con from 0.00217424 to 0.00217425
Heightened Def Con from 0.00217425 to 0.00217425
Heightened Def Con from 0.00217426 to 0.00217426
Heightened Def Con from 0.00217427 to 0.00217427
Heightened Def Con from 0.00217427 to 0.00217427
Heightened Def Con from 0.00217427 to 0.00217427
Heightened Def Con from 0.00217427 to 0.00217428
Heightened Def Con from 0.00217428 to 0.00217428
Heightened Def Con from 0.00217429 to 0.00217429
Heightened Def Con from 0.00217429 to 0.00217429
Heightened Def Con from 0.00217429 to 0.0021743
Heightened Def Con from 0.0021743 to 0.0021743
Heightened Def Con from 0.0021743 to 0.0021743
Heightened Def Con from 0.0021743 to 0.0021743
Heightened Def Con from 0.00217431 +to 0.00217431
Heightened Def Con from 0.00217431 to 0.00217431
Heightened Def Con from 0.00217618 to 0.00217618
Heightened Def Con from 0.00217619 to 0.00217619
Heightened Def Con from 0.0021762 to 0.0021762
Heightened Def Con from 0.0021762 to 0.00217621
Heightened Def Con from 0.00217621 to 0.00217621
Heightened Def Con from 0.00217621 to 0.00217621
Heightened Def Con from 0.00217621 to 0.00217621
Heightened Def Con from 0.00217621 to 0.00217622
Heightened Def Con from 0.00217622 to 0.00217622
Heightened Def Con from 0.00217622 to 0.00217622
Heightened Def Con from 0.00217622 to 0.00217622
Heightened Def Con from 0.00217622 to 0.00217622
Heightened Def Con from 0.00217622 to 0.00217622
Heightened Def Con from 0.00217623 to 0.00217624
Heightened Def Con from 0.00217657 to 0.00217657
Heightened Def Con from 0.00217657 to 0.00217658
Heightened Def Con from 0.00217658 to 0.00217658
Heightened Def Con from 0.00217658 to 0.00217658
Heightened Def Con from 0.00217658 to 0.00217658
Heightened Def Con from 0.00217659 to 0.00217659
Heightened Def Con from 0.00217659 to 0.00217659
Heightened Def Con from 0.0021766 to 0.0021766
Heightened Def Con from 0.0021766 to 0.0021766
Heightened Def Con from 0.0021766 to 0.0021766
Heightened Def Con from 0.0021766 to 0.0021766
Heightened Def Con from 0.00217661 to 0.00217661
Heightened Def Con from 0.00217661 to 0.00217661
Heightened Def Con from 0.00217663 to 0.00217664
Heightened Def Con from 0.00217664 to 0.00217664
Heightened Def Con from 0.00217678 to 0.00217678
Heightened Def Con from 0.00217679 to 0.00217679
Heightened Def Con from 0.00217679 to 0.00217679
Heightened Def Con from 0.0021768 to 0.0021768
Heightened Def Con from 0.0021768 to 0.0021768
Heightened Def Con from 0.0021768 to 0.0021768
Heightened Def Con from 0.00217681 to 0.00217681
Heightened Def Con from 0.00217684 to 0.00217684
Heightened Def Con from 0.00217711 to 0.00217711
Heightened Def Con from 0.00217711 to 0.00217711
Heightened Def Con from 0.00217711 to 0.00217712
Heightened Def Con from 0.00217728 to 0.00217728
Heightened Def Con from 0.00217728 to 0.00217728
Heightened Def Con from 0.00217728 to 0.00217728
Heightened Def Con from 0.00217728 to 0.00217728
Heightened Def Con from 0.00217728 to 0.00217728
Heightened Def Con from 0.00217729 to 0.00217729

Date: Thu Mar 10 08:51:06 2016
Total elapsed time: 519.922 seconds.

tnom = 27
temp = 27
method = modified trap
totiter = 13114206
traniter = 13114206
tranpoints = 2174824
accept = 1399731
rejected = 807554
matrix size = 316
fillins = 972
solver = Normal
Thread vector: 40.4/21.5[4] 7.7/5.6[4] 10.0/6.5[4] 1.8/3.9[1]  2592/500
Matrix Compiler1: 86.43 KB object code size  19.1/8.4/[4.9]
Matrix Compiler2: 43.01 KB object code size  5.5/4.4/[2.1]


