Circuit: * D:\GitHub\LASDAC\ltspice\lasdac.asc

WARNING: Node N022 is floating.

WARNING: Less than two connections to node NC_01.  This node is used by L2.
Per .tran options, skipping operating point for transient analysis.
Ignoring empty pin current: Ix(u11:fb)
Ignoring empty pin current: Ix(u12:fb)
Fatal Error: Trouble writing 4 more bytes to the disk...
   Full?  Permission problem?
